# File generated by Flopy version 3.3.6 on 12/07/2022 at 20:40:01.
BEGIN options
  DIGITS  10
  PRINT_INPUT
END options

BEGIN continuous  FILEOUT  gwf_obs.csv
  h1l1  HEAD  1 9 10
  h1l2  HEAD  2 9 10
  h1l3  HEAD  3 9 10
  h1l4  HEAD  4 9 10
  h2l1  HEAD  1 12 7
  h2l2  HEAD  2 12 7
  h3l2  HEAD  3 12 7
  h4l2  HEAD  4 12 7
END continuous  FILEOUT  gwf_obs.csv

