# File generated by Flopy version 3.3.5 on 03/04/2022 at 11:13:53.
BEGIN options
END options

BEGIN dimensions
  MAXBOUND  2
END dimensions

BEGIN period  2
  2 9 10  -72000.00000000
  4 12 7  -72000.00000000
END period  2

BEGIN period  3
  2 9 10       0.00000000
  4 12 7       0.00000000
END period  3

