# File generated by Flopy version 3.3.6 on 12/07/2022 at 20:40:01.
BEGIN options
END options

BEGIN nonlinear
  OUTER_DVCLOSE  1.00000000E-09
  OUTER_MAXIMUM  100
END nonlinear

BEGIN linear
  INNER_MAXIMUM  300
  INNER_DVCLOSE  1.00000000E-09
  inner_rclose  1.00000000E-06  strict
  LINEAR_ACCELERATION  bicgstab
  RELAXATION_FACTOR       0.97000000
END linear

