# File generated by Flopy version 3.3.6 on 12/07/2022 at 20:40:02.
BEGIN options
  BUDGET  FILEOUT  ex-gwf-csub-p04.cbc
  HEAD  FILEOUT  ex-gwf-csub-p04.hds
END options

BEGIN period  1
  SAVE  BUDGET  ALL
  SAVE  HEAD  ALL
  PRINT  BUDGET  ALL
END period  1

