# File generated by Flopy version 3.3.5 on 03/04/2022 at 11:13:53.
BEGIN options
  TIME_UNITS  days
END options

BEGIN dimensions
  NPER  3
END dimensions

BEGIN perioddata
       0.00000000  1       1.00000000
   21915.00000000  60       1.00000000
   21915.00000000  60       1.00000000
END perioddata

