# File generated by Flopy version 3.3.6 on 12/07/2022 at 20:40:02.
BEGIN options
END options

BEGIN dimensions
  MAXBOUND  8
END dimensions

BEGIN period  1
  1 20 8     100.00000000
  2 20 8     100.00000000
  3 20 8     100.00000000
  4 20 8     100.00000000
  1 20 9     100.00000000
  2 20 9     100.00000000
  3 20 9     100.00000000
  4 20 9     100.00000000
END period  1

