# File generated by Flopy version 3.3.5 on 03/04/2022 at 11:13:53.
BEGIN options
END options

BEGIN dimensions
  MAXBOUND  8
END dimensions

BEGIN period  1
  1 20 8     100.00000000
  2 20 8     100.00000000
  3 20 8     100.00000000
  4 20 8     100.00000000
  1 20 9     100.00000000
  2 20 9     100.00000000
  3 20 9     100.00000000
  4 20 9     100.00000000
END period  1

