# File generated by Flopy version 3.3.5 on 03/04/2022 at 11:13:53.
BEGIN options
  BUDGET  FILEOUT  ex-gwf-csub-p04.cbc
  HEAD  FILEOUT  ex-gwf-csub-p04.hds
END options

BEGIN period  1
  SAVE  BUDGET  ALL
  SAVE  HEAD  ALL
  PRINT  BUDGET  ALL
END period  1

