# File generated by Flopy version 3.3.5 on 03/04/2022 at 11:13:53.
BEGIN options
  BOUNDNAMES
  PRINT_INPUT
  SAVE_FLOWS
  GAMMAW    9806.65000000
  BETA  4.66120000E-10
  COMPRESSION_INDICES
  UPDATE_MATERIAL_PROPERTIES
  OBS6  FILEIN  ex-gwf-csub-p04.csub.obs
END options

BEGIN dimensions
  NINTERBEDS  840
END dimensions

BEGIN griddata
  cg_ske_cr  LAYERED
    CONSTANT       0.00500000
    CONSTANT       0.00500000
    CONSTANT       0.01000000
    CONSTANT       0.00500000
  cg_theta  LAYERED
    CONSTANT       0.32000000
    CONSTANT       0.32000000
    CONSTANT       0.45000000
    CONSTANT       0.32000000
  sgm  LAYERED
    CONSTANT       1.77000000
    CONSTANT       1.77000000
    CONSTANT       1.60000000
    CONSTANT       1.77000000
  sgs  LAYERED
    CONSTANT       2.06000000
    CONSTANT       2.05000000
    CONSTANT       1.94000000
    CONSTANT       2.06000000
END griddata

BEGIN packagedata
  1  1 1 6  nodelay      15.00000000      45.00000000       1.00000000       0.25000000       0.01000000       0.45000000     999.00000000     999.00000000  01_01_06
  2  2 1 6  nodelay      15.00000000      70.00000000       1.00000000       0.25000000       0.01000000       0.45000000     999.00000000     999.00000000  02_01_06
  3  3 1 6  nodelay      15.00000000      50.00000000       1.00000000       0.25000000       0.01000000       0.45000000     999.00000000     999.00000000  03_01_06
  4  4 1 6  nodelay      15.00000000      90.00000000       1.00000000       0.25000000       0.01000000       0.45000000     999.00000000     999.00000000  04_01_06
  5  1 1 7  nodelay      15.00000000      45.00000000       1.00000000       0.25000000       0.01000000       0.45000000     999.00000000     999.00000000  01_01_07
  6  2 1 7  nodelay      15.00000000      70.00000000       1.00000000       0.25000000       0.01000000       0.45000000     999.00000000     999.00000000  02_01_07
  7  3 1 7  nodelay      15.00000000      50.00000000       1.00000000       0.25000000       0.01000000       0.45000000     999.00000000     999.00000000  03_01_07
  8  4 1 7  nodelay      15.00000000      90.00000000       1.00000000       0.25000000       0.01000000       0.45000000     999.00000000     999.00000000  04_01_07
  9  1 1 8  nodelay      15.00000000      45.00000000       1.00000000       0.25000000       0.01000000       0.45000000     999.00000000     999.00000000  01_01_08
  10  2 1 8  nodelay      15.00000000      70.00000000       1.00000000       0.25000000       0.01000000       0.45000000     999.00000000     999.00000000  02_01_08
  11  3 1 8  nodelay      15.00000000      50.00000000       1.00000000       0.25000000       0.01000000       0.45000000     999.00000000     999.00000000  03_01_08
  12  4 1 8  nodelay      15.00000000      90.00000000       1.00000000       0.25000000       0.01000000       0.45000000     999.00000000     999.00000000  04_01_08
  13  1 1 9  nodelay      15.00000000      45.00000000       1.00000000       0.25000000       0.01000000       0.45000000     999.00000000     999.00000000  01_01_09
  14  2 1 9  nodelay      15.00000000      70.00000000       1.00000000       0.25000000       0.01000000       0.45000000     999.00000000     999.00000000  02_01_09
  15  3 1 9  nodelay      15.00000000      50.00000000       1.00000000       0.25000000       0.01000000       0.45000000     999.00000000     999.00000000  03_01_09
  16  4 1 9  nodelay      15.00000000      90.00000000       1.00000000       0.25000000       0.01000000       0.45000000     999.00000000     999.00000000  04_01_09
  17  1 1 10  nodelay      15.00000000      45.00000000       1.00000000       0.25000000       0.01000000       0.45000000     999.00000000     999.00000000  01_01_10
  18  2 1 10  nodelay      15.00000000      70.00000000       1.00000000       0.25000000       0.01000000       0.45000000     999.00000000     999.00000000  02_01_10
  19  3 1 10  nodelay      15.00000000      50.00000000       1.00000000       0.25000000       0.01000000       0.45000000     999.00000000     999.00000000  03_01_10
  20  4 1 10  nodelay      15.00000000      90.00000000       1.00000000       0.25000000       0.01000000       0.45000000     999.00000000     999.00000000  04_01_10
  21  1 2 5  nodelay      15.00000000      45.00000000       1.00000000       0.25000000       0.01000000       0.45000000     999.00000000     999.00000000  01_02_05
  22  2 2 5  nodelay      15.00000000      70.00000000       1.00000000       0.25000000       0.01000000       0.45000000     999.00000000     999.00000000  02_02_05
  23  3 2 5  nodelay      15.00000000      50.00000000       1.00000000       0.25000000       0.01000000       0.45000000     999.00000000     999.00000000  03_02_05
  24  4 2 5  nodelay      15.00000000      90.00000000       1.00000000       0.25000000       0.01000000       0.45000000     999.00000000     999.00000000  04_02_05
  25  1 2 6  nodelay      15.00000000      45.00000000       1.00000000       0.25000000       0.01000000       0.45000000     999.00000000     999.00000000  01_02_06
  26  2 2 6  nodelay      15.00000000      70.00000000       1.00000000       0.25000000       0.01000000       0.45000000     999.00000000     999.00000000  02_02_06
  27  3 2 6  nodelay      15.00000000      50.00000000       1.00000000       0.25000000       0.01000000       0.45000000     999.00000000     999.00000000  03_02_06
  28  4 2 6  nodelay      15.00000000      90.00000000       1.00000000       0.25000000       0.01000000       0.45000000     999.00000000     999.00000000  04_02_06
  29  1 2 7  nodelay      15.00000000      45.00000000       1.00000000       0.25000000       0.01000000       0.45000000     999.00000000     999.00000000  01_02_07
  30  2 2 7  nodelay      15.00000000      70.00000000       1.00000000       0.25000000       0.01000000       0.45000000     999.00000000     999.00000000  02_02_07
  31  3 2 7  nodelay      15.00000000      50.00000000       1.00000000       0.25000000       0.01000000       0.45000000     999.00000000     999.00000000  03_02_07
  32  4 2 7  nodelay      15.00000000      90.00000000       1.00000000       0.25000000       0.01000000       0.45000000     999.00000000     999.00000000  04_02_07
  33  1 2 8  nodelay      15.00000000      45.00000000       1.00000000       0.25000000       0.01000000       0.45000000     999.00000000     999.00000000  01_02_08
  34  2 2 8  nodelay      15.00000000      70.00000000       1.00000000       0.25000000       0.01000000       0.45000000     999.00000000     999.00000000  02_02_08
  35  3 2 8  nodelay      15.00000000      50.00000000       1.00000000       0.25000000       0.01000000       0.45000000     999.00000000     999.00000000  03_02_08
  36  4 2 8  nodelay      15.00000000      90.00000000       1.00000000       0.25000000       0.01000000       0.45000000     999.00000000     999.00000000  04_02_08
  37  1 2 9  nodelay      15.00000000      45.00000000       1.00000000       0.25000000       0.01000000       0.45000000     999.00000000     999.00000000  01_02_09
  38  2 2 9  nodelay      15.00000000      70.00000000       1.00000000       0.25000000       0.01000000       0.45000000     999.00000000     999.00000000  02_02_09
  39  3 2 9  nodelay      15.00000000      50.00000000       1.00000000       0.25000000       0.01000000       0.45000000     999.00000000     999.00000000  03_02_09
  40  4 2 9  nodelay      15.00000000      90.00000000       1.00000000       0.25000000       0.01000000       0.45000000     999.00000000     999.00000000  04_02_09
  41  1 2 10  nodelay      15.00000000      45.00000000       1.00000000       0.25000000       0.01000000       0.45000000     999.00000000     999.00000000  01_02_10
  42  2 2 10  nodelay      15.00000000      70.00000000       1.00000000       0.25000000       0.01000000       0.45000000     999.00000000     999.00000000  02_02_10
  43  3 2 10  nodelay      15.00000000      50.00000000       1.00000000       0.25000000       0.01000000       0.45000000     999.00000000     999.00000000  03_02_10
  44  4 2 10  nodelay      15.00000000      90.00000000       1.00000000       0.25000000       0.01000000       0.45000000     999.00000000     999.00000000  04_02_10
  45  1 2 11  nodelay      15.00000000      45.00000000       1.00000000       0.25000000       0.01000000       0.45000000     999.00000000     999.00000000  01_02_11
  46  2 2 11  nodelay      15.00000000      70.00000000       1.00000000       0.25000000       0.01000000       0.45000000     999.00000000     999.00000000  02_02_11
  47  3 2 11  nodelay      15.00000000      50.00000000       1.00000000       0.25000000       0.01000000       0.45000000     999.00000000     999.00000000  03_02_11
  48  4 2 11  nodelay      15.00000000      90.00000000       1.00000000       0.25000000       0.01000000       0.45000000     999.00000000     999.00000000  04_02_11
  49  1 2 12  nodelay      15.00000000      45.00000000       1.00000000       0.25000000       0.01000000       0.45000000     999.00000000     999.00000000  01_02_12
  50  2 2 12  nodelay      15.00000000      70.00000000       1.00000000       0.25000000       0.01000000       0.45000000     999.00000000     999.00000000  02_02_12
  51  3 2 12  nodelay      15.00000000      50.00000000       1.00000000       0.25000000       0.01000000       0.45000000     999.00000000     999.00000000  03_02_12
  52  4 2 12  nodelay      15.00000000      90.00000000       1.00000000       0.25000000       0.01000000       0.45000000     999.00000000     999.00000000  04_02_12
  53  1 3 4  nodelay      15.00000000      45.00000000       1.00000000       0.25000000       0.01000000       0.45000000     999.00000000     999.00000000  01_03_04
  54  2 3 4  nodelay      15.00000000      70.00000000       1.00000000       0.25000000       0.01000000       0.45000000     999.00000000     999.00000000  02_03_04
  55  3 3 4  nodelay      15.00000000      50.00000000       1.00000000       0.25000000       0.01000000       0.45000000     999.00000000     999.00000000  03_03_04
  56  4 3 4  nodelay      15.00000000      90.00000000       1.00000000       0.25000000       0.01000000       0.45000000     999.00000000     999.00000000  04_03_04
  57  1 3 5  nodelay      15.00000000      45.00000000       1.00000000       0.25000000       0.01000000       0.45000000     999.00000000     999.00000000  01_03_05
  58  2 3 5  nodelay      15.00000000      70.00000000       1.00000000       0.25000000       0.01000000       0.45000000     999.00000000     999.00000000  02_03_05
  59  3 3 5  nodelay      15.00000000      50.00000000       1.00000000       0.25000000       0.01000000       0.45000000     999.00000000     999.00000000  03_03_05
  60  4 3 5  nodelay      15.00000000      90.00000000       1.00000000       0.25000000       0.01000000       0.45000000     999.00000000     999.00000000  04_03_05
  61  1 3 6  nodelay      15.00000000      45.00000000       1.00000000       0.25000000       0.01000000       0.45000000     999.00000000     999.00000000  01_03_06
  62  2 3 6  nodelay      15.00000000      70.00000000       1.00000000       0.25000000       0.01000000       0.45000000     999.00000000     999.00000000  02_03_06
  63  3 3 6  nodelay      15.00000000      50.00000000       1.00000000       0.25000000       0.01000000       0.45000000     999.00000000     999.00000000  03_03_06
  64  4 3 6  nodelay      15.00000000      90.00000000       1.00000000       0.25000000       0.01000000       0.45000000     999.00000000     999.00000000  04_03_06
  65  1 3 7  nodelay      15.00000000      45.00000000       1.00000000       0.25000000       0.01000000       0.45000000     999.00000000     999.00000000  01_03_07
  66  2 3 7  nodelay      15.00000000      70.00000000       1.00000000       0.25000000       0.01000000       0.45000000     999.00000000     999.00000000  02_03_07
  67  3 3 7  nodelay      15.00000000      50.00000000       1.00000000       0.25000000       0.01000000       0.45000000     999.00000000     999.00000000  03_03_07
  68  4 3 7  nodelay      15.00000000      90.00000000       1.00000000       0.25000000       0.01000000       0.45000000     999.00000000     999.00000000  04_03_07
  69  1 3 8  nodelay      15.00000000      45.00000000       1.00000000       0.25000000       0.01000000       0.45000000     999.00000000     999.00000000  01_03_08
  70  2 3 8  nodelay      15.00000000      70.00000000       1.00000000       0.25000000       0.01000000       0.45000000     999.00000000     999.00000000  02_03_08
  71  3 3 8  nodelay      15.00000000      50.00000000       1.00000000       0.25000000       0.01000000       0.45000000     999.00000000     999.00000000  03_03_08
  72  4 3 8  nodelay      15.00000000      90.00000000       1.00000000       0.25000000       0.01000000       0.45000000     999.00000000     999.00000000  04_03_08
  73  1 3 9  nodelay      15.00000000      45.00000000       1.00000000       0.25000000       0.01000000       0.45000000     999.00000000     999.00000000  01_03_09
  74  2 3 9  nodelay      15.00000000      70.00000000       1.00000000       0.25000000       0.01000000       0.45000000     999.00000000     999.00000000  02_03_09
  75  3 3 9  nodelay      15.00000000      50.00000000       1.00000000       0.25000000       0.01000000       0.45000000     999.00000000     999.00000000  03_03_09
  76  4 3 9  nodelay      15.00000000      90.00000000       1.00000000       0.25000000       0.01000000       0.45000000     999.00000000     999.00000000  04_03_09
  77  1 3 10  nodelay      15.00000000      45.00000000       1.00000000       0.25000000       0.01000000       0.45000000     999.00000000     999.00000000  01_03_10
  78  2 3 10  nodelay      15.00000000      70.00000000       1.00000000       0.25000000       0.01000000       0.45000000     999.00000000     999.00000000  02_03_10
  79  3 3 10  nodelay      15.00000000      50.00000000       1.00000000       0.25000000       0.01000000       0.45000000     999.00000000     999.00000000  03_03_10
  80  4 3 10  nodelay      15.00000000      90.00000000       1.00000000       0.25000000       0.01000000       0.45000000     999.00000000     999.00000000  04_03_10
  81  1 3 11  nodelay      15.00000000      45.00000000       1.00000000       0.25000000       0.01000000       0.45000000     999.00000000     999.00000000  01_03_11
  82  2 3 11  nodelay      15.00000000      70.00000000       1.00000000       0.25000000       0.01000000       0.45000000     999.00000000     999.00000000  02_03_11
  83  3 3 11  nodelay      15.00000000      50.00000000       1.00000000       0.25000000       0.01000000       0.45000000     999.00000000     999.00000000  03_03_11
  84  4 3 11  nodelay      15.00000000      90.00000000       1.00000000       0.25000000       0.01000000       0.45000000     999.00000000     999.00000000  04_03_11
  85  1 3 12  nodelay      15.00000000      45.00000000       1.00000000       0.25000000       0.01000000       0.45000000     999.00000000     999.00000000  01_03_12
  86  2 3 12  nodelay      15.00000000      70.00000000       1.00000000       0.25000000       0.01000000       0.45000000     999.00000000     999.00000000  02_03_12
  87  3 3 12  nodelay      15.00000000      50.00000000       1.00000000       0.25000000       0.01000000       0.45000000     999.00000000     999.00000000  03_03_12
  88  4 3 12  nodelay      15.00000000      90.00000000       1.00000000       0.25000000       0.01000000       0.45000000     999.00000000     999.00000000  04_03_12
  89  1 4 4  nodelay      15.00000000      45.00000000       1.00000000       0.25000000       0.01000000       0.45000000     999.00000000     999.00000000  01_04_04
  90  2 4 4  nodelay      15.00000000      70.00000000       1.00000000       0.25000000       0.01000000       0.45000000     999.00000000     999.00000000  02_04_04
  91  3 4 4  nodelay      15.00000000      50.00000000       1.00000000       0.25000000       0.01000000       0.45000000     999.00000000     999.00000000  03_04_04
  92  4 4 4  nodelay      15.00000000      90.00000000       1.00000000       0.25000000       0.01000000       0.45000000     999.00000000     999.00000000  04_04_04
  93  1 4 5  nodelay      15.00000000      45.00000000       1.00000000       0.25000000       0.01000000       0.45000000     999.00000000     999.00000000  01_04_05
  94  2 4 5  nodelay      15.00000000      70.00000000       1.00000000       0.25000000       0.01000000       0.45000000     999.00000000     999.00000000  02_04_05
  95  3 4 5  nodelay      15.00000000      50.00000000       1.00000000       0.25000000       0.01000000       0.45000000     999.00000000     999.00000000  03_04_05
  96  4 4 5  nodelay      15.00000000      90.00000000       1.00000000       0.25000000       0.01000000       0.45000000     999.00000000     999.00000000  04_04_05
  97  1 4 6  nodelay      15.00000000      45.00000000       1.00000000       0.25000000       0.01000000       0.45000000     999.00000000     999.00000000  01_04_06
  98  2 4 6  nodelay      15.00000000      70.00000000       1.00000000       0.25000000       0.01000000       0.45000000     999.00000000     999.00000000  02_04_06
  99  3 4 6  nodelay      15.00000000      50.00000000       1.00000000       0.25000000       0.01000000       0.45000000     999.00000000     999.00000000  03_04_06
  100  4 4 6  nodelay      15.00000000      90.00000000       1.00000000       0.25000000       0.01000000       0.45000000     999.00000000     999.00000000  04_04_06
  101  1 4 7  nodelay      15.00000000      45.00000000       1.00000000       0.25000000       0.01000000       0.45000000     999.00000000     999.00000000  01_04_07
  102  2 4 7  nodelay      15.00000000      70.00000000       1.00000000       0.25000000       0.01000000       0.45000000     999.00000000     999.00000000  02_04_07
  103  3 4 7  nodelay      15.00000000      50.00000000       1.00000000       0.25000000       0.01000000       0.45000000     999.00000000     999.00000000  03_04_07
  104  4 4 7  nodelay      15.00000000      90.00000000       1.00000000       0.25000000       0.01000000       0.45000000     999.00000000     999.00000000  04_04_07
  105  1 4 8  nodelay      15.00000000      45.00000000       1.00000000       0.25000000       0.01000000       0.45000000     999.00000000     999.00000000  01_04_08
  106  2 4 8  nodelay      15.00000000      70.00000000       1.00000000       0.25000000       0.01000000       0.45000000     999.00000000     999.00000000  02_04_08
  107  3 4 8  nodelay      15.00000000      50.00000000       1.00000000       0.25000000       0.01000000       0.45000000     999.00000000     999.00000000  03_04_08
  108  4 4 8  nodelay      15.00000000      90.00000000       1.00000000       0.25000000       0.01000000       0.45000000     999.00000000     999.00000000  04_04_08
  109  1 4 9  nodelay      15.00000000      45.00000000       1.00000000       0.25000000       0.01000000       0.45000000     999.00000000     999.00000000  01_04_09
  110  2 4 9  nodelay      15.00000000      70.00000000       1.00000000       0.25000000       0.01000000       0.45000000     999.00000000     999.00000000  02_04_09
  111  3 4 9  nodelay      15.00000000      50.00000000       1.00000000       0.25000000       0.01000000       0.45000000     999.00000000     999.00000000  03_04_09
  112  4 4 9  nodelay      15.00000000      90.00000000       1.00000000       0.25000000       0.01000000       0.45000000     999.00000000     999.00000000  04_04_09
  113  1 4 10  nodelay      15.00000000      45.00000000       1.00000000       0.25000000       0.01000000       0.45000000     999.00000000     999.00000000  01_04_10
  114  2 4 10  nodelay      15.00000000      70.00000000       1.00000000       0.25000000       0.01000000       0.45000000     999.00000000     999.00000000  02_04_10
  115  3 4 10  nodelay      15.00000000      50.00000000       1.00000000       0.25000000       0.01000000       0.45000000     999.00000000     999.00000000  03_04_10
  116  4 4 10  nodelay      15.00000000      90.00000000       1.00000000       0.25000000       0.01000000       0.45000000     999.00000000     999.00000000  04_04_10
  117  1 4 11  nodelay      15.00000000      45.00000000       1.00000000       0.25000000       0.01000000       0.45000000     999.00000000     999.00000000  01_04_11
  118  2 4 11  nodelay      15.00000000      70.00000000       1.00000000       0.25000000       0.01000000       0.45000000     999.00000000     999.00000000  02_04_11
  119  3 4 11  nodelay      15.00000000      50.00000000       1.00000000       0.25000000       0.01000000       0.45000000     999.00000000     999.00000000  03_04_11
  120  4 4 11  nodelay      15.00000000      90.00000000       1.00000000       0.25000000       0.01000000       0.45000000     999.00000000     999.00000000  04_04_11
  121  1 4 12  nodelay      15.00000000      45.00000000       1.00000000       0.25000000       0.01000000       0.45000000     999.00000000     999.00000000  01_04_12
  122  2 4 12  nodelay      15.00000000      70.00000000       1.00000000       0.25000000       0.01000000       0.45000000     999.00000000     999.00000000  02_04_12
  123  3 4 12  nodelay      15.00000000      50.00000000       1.00000000       0.25000000       0.01000000       0.45000000     999.00000000     999.00000000  03_04_12
  124  4 4 12  nodelay      15.00000000      90.00000000       1.00000000       0.25000000       0.01000000       0.45000000     999.00000000     999.00000000  04_04_12
  125  1 5 3  nodelay      15.00000000      45.00000000       1.00000000       0.25000000       0.01000000       0.45000000     999.00000000     999.00000000  01_05_03
  126  2 5 3  nodelay      15.00000000      70.00000000       1.00000000       0.25000000       0.01000000       0.45000000     999.00000000     999.00000000  02_05_03
  127  3 5 3  nodelay      15.00000000      50.00000000       1.00000000       0.25000000       0.01000000       0.45000000     999.00000000     999.00000000  03_05_03
  128  4 5 3  nodelay      15.00000000      90.00000000       1.00000000       0.25000000       0.01000000       0.45000000     999.00000000     999.00000000  04_05_03
  129  1 5 4  nodelay      15.00000000      45.00000000       1.00000000       0.25000000       0.01000000       0.45000000     999.00000000     999.00000000  01_05_04
  130  2 5 4  nodelay      15.00000000      70.00000000       1.00000000       0.25000000       0.01000000       0.45000000     999.00000000     999.00000000  02_05_04
  131  3 5 4  nodelay      15.00000000      50.00000000       1.00000000       0.25000000       0.01000000       0.45000000     999.00000000     999.00000000  03_05_04
  132  4 5 4  nodelay      15.00000000      90.00000000       1.00000000       0.25000000       0.01000000       0.45000000     999.00000000     999.00000000  04_05_04
  133  1 5 5  nodelay      15.00000000      45.00000000       1.00000000       0.25000000       0.01000000       0.45000000     999.00000000     999.00000000  01_05_05
  134  2 5 5  nodelay      15.00000000      70.00000000       1.00000000       0.25000000       0.01000000       0.45000000     999.00000000     999.00000000  02_05_05
  135  3 5 5  nodelay      15.00000000      50.00000000       1.00000000       0.25000000       0.01000000       0.45000000     999.00000000     999.00000000  03_05_05
  136  4 5 5  nodelay      15.00000000      90.00000000       1.00000000       0.25000000       0.01000000       0.45000000     999.00000000     999.00000000  04_05_05
  137  1 5 6  nodelay      15.00000000      45.00000000       1.00000000       0.25000000       0.01000000       0.45000000     999.00000000     999.00000000  01_05_06
  138  2 5 6  nodelay      15.00000000      70.00000000       1.00000000       0.25000000       0.01000000       0.45000000     999.00000000     999.00000000  02_05_06
  139  3 5 6  nodelay      15.00000000      50.00000000       1.00000000       0.25000000       0.01000000       0.45000000     999.00000000     999.00000000  03_05_06
  140  4 5 6  nodelay      15.00000000      90.00000000       1.00000000       0.25000000       0.01000000       0.45000000     999.00000000     999.00000000  04_05_06
  141  1 5 7  nodelay      15.00000000      45.00000000       1.00000000       0.25000000       0.01000000       0.45000000     999.00000000     999.00000000  01_05_07
  142  2 5 7  nodelay      15.00000000      70.00000000       1.00000000       0.25000000       0.01000000       0.45000000     999.00000000     999.00000000  02_05_07
  143  3 5 7  nodelay      15.00000000      50.00000000       1.00000000       0.25000000       0.01000000       0.45000000     999.00000000     999.00000000  03_05_07
  144  4 5 7  nodelay      15.00000000      90.00000000       1.00000000       0.25000000       0.01000000       0.45000000     999.00000000     999.00000000  04_05_07
  145  1 5 8  nodelay      15.00000000      45.00000000       1.00000000       0.25000000       0.01000000       0.45000000     999.00000000     999.00000000  01_05_08
  146  2 5 8  nodelay      15.00000000      70.00000000       1.00000000       0.25000000       0.01000000       0.45000000     999.00000000     999.00000000  02_05_08
  147  3 5 8  nodelay      15.00000000      50.00000000       1.00000000       0.25000000       0.01000000       0.45000000     999.00000000     999.00000000  03_05_08
  148  4 5 8  nodelay      15.00000000      90.00000000       1.00000000       0.25000000       0.01000000       0.45000000     999.00000000     999.00000000  04_05_08
  149  1 5 9  nodelay      15.00000000      45.00000000       1.00000000       0.25000000       0.01000000       0.45000000     999.00000000     999.00000000  01_05_09
  150  2 5 9  nodelay      15.00000000      70.00000000       1.00000000       0.25000000       0.01000000       0.45000000     999.00000000     999.00000000  02_05_09
  151  3 5 9  nodelay      15.00000000      50.00000000       1.00000000       0.25000000       0.01000000       0.45000000     999.00000000     999.00000000  03_05_09
  152  4 5 9  nodelay      15.00000000      90.00000000       1.00000000       0.25000000       0.01000000       0.45000000     999.00000000     999.00000000  04_05_09
  153  1 5 10  nodelay      15.00000000      45.00000000       1.00000000       0.25000000       0.01000000       0.45000000     999.00000000     999.00000000  01_05_10
  154  2 5 10  nodelay      15.00000000      70.00000000       1.00000000       0.25000000       0.01000000       0.45000000     999.00000000     999.00000000  02_05_10
  155  3 5 10  nodelay      15.00000000      50.00000000       1.00000000       0.25000000       0.01000000       0.45000000     999.00000000     999.00000000  03_05_10
  156  4 5 10  nodelay      15.00000000      90.00000000       1.00000000       0.25000000       0.01000000       0.45000000     999.00000000     999.00000000  04_05_10
  157  1 5 11  nodelay      15.00000000      45.00000000       1.00000000       0.25000000       0.01000000       0.45000000     999.00000000     999.00000000  01_05_11
  158  2 5 11  nodelay      15.00000000      70.00000000       1.00000000       0.25000000       0.01000000       0.45000000     999.00000000     999.00000000  02_05_11
  159  3 5 11  nodelay      15.00000000      50.00000000       1.00000000       0.25000000       0.01000000       0.45000000     999.00000000     999.00000000  03_05_11
  160  4 5 11  nodelay      15.00000000      90.00000000       1.00000000       0.25000000       0.01000000       0.45000000     999.00000000     999.00000000  04_05_11
  161  1 5 12  nodelay      15.00000000      45.00000000       1.00000000       0.25000000       0.01000000       0.45000000     999.00000000     999.00000000  01_05_12
  162  2 5 12  nodelay      15.00000000      70.00000000       1.00000000       0.25000000       0.01000000       0.45000000     999.00000000     999.00000000  02_05_12
  163  3 5 12  nodelay      15.00000000      50.00000000       1.00000000       0.25000000       0.01000000       0.45000000     999.00000000     999.00000000  03_05_12
  164  4 5 12  nodelay      15.00000000      90.00000000       1.00000000       0.25000000       0.01000000       0.45000000     999.00000000     999.00000000  04_05_12
  165  1 5 13  nodelay      15.00000000      45.00000000       1.00000000       0.25000000       0.01000000       0.45000000     999.00000000     999.00000000  01_05_13
  166  2 5 13  nodelay      15.00000000      70.00000000       1.00000000       0.25000000       0.01000000       0.45000000     999.00000000     999.00000000  02_05_13
  167  3 5 13  nodelay      15.00000000      50.00000000       1.00000000       0.25000000       0.01000000       0.45000000     999.00000000     999.00000000  03_05_13
  168  4 5 13  nodelay      15.00000000      90.00000000       1.00000000       0.25000000       0.01000000       0.45000000     999.00000000     999.00000000  04_05_13
  169  1 6 3  nodelay      15.00000000      45.00000000       1.00000000       0.25000000       0.01000000       0.45000000     999.00000000     999.00000000  01_06_03
  170  2 6 3  nodelay      15.00000000      70.00000000       1.00000000       0.25000000       0.01000000       0.45000000     999.00000000     999.00000000  02_06_03
  171  3 6 3  nodelay      15.00000000      50.00000000       1.00000000       0.25000000       0.01000000       0.45000000     999.00000000     999.00000000  03_06_03
  172  4 6 3  nodelay      15.00000000      90.00000000       1.00000000       0.25000000       0.01000000       0.45000000     999.00000000     999.00000000  04_06_03
  173  1 6 4  nodelay      15.00000000      45.00000000       1.00000000       0.25000000       0.01000000       0.45000000     999.00000000     999.00000000  01_06_04