# File generated by Flopy version 3.3.6 on 12/07/2022 at 20:40:01.
BEGIN options
END options

BEGIN timing
  TDIS6  ex-gwf-csub-p04.tdis
END timing

BEGIN models
  gwf6  ex-gwf-csub-p04.nam  ex-gwf-csub-p04
END models

BEGIN exchanges
END exchanges

BEGIN solutiongroup  1
  ims6  ex-gwf-csub-p04.ims  ex-gwf-csub-p04
END solutiongroup  1

