# File generated by Flopy version 3.3.5 on 03/04/2022 at 11:13:53.
BEGIN options
END options

BEGIN timing
  TDIS6  ex-gwf-csub-p04.tdis
END timing

BEGIN models
  gwf6  ex-gwf-csub-p04.nam  ex-gwf-csub-p04
END models

BEGIN exchanges
END exchanges

BEGIN solutiongroup  1
  ims6  ex-gwf-csub-p04.ims  ex-gwf-csub-p04
END solutiongroup  1

