# File generated by Flopy version 3.3.6 on 12/07/2022 at 20:40:46.
BEGIN options
  XT3D_OFF
END options

BEGIN griddata
  alh
    CONSTANT       0.10000000
  ath1
    CONSTANT       0.10000000
END griddata

