# File generated by Flopy version 3.3.6 on 12/07/2022 at 20:40:46.
BEGIN options
  DIGITS  10
  PRINT_INPUT
END options

BEGIN continuous  FILEOUT  trans.obs.csv
  X005  CONCENTRATION  1 1 1
  X405  CONCENTRATION  1 1 41
  X1105  CONCENTRATION  1 1 111
END continuous  FILEOUT  trans.obs.csv

