# File generated by Flopy version 3.3.6 on 12/07/2022 at 20:40:46.
BEGIN options
  SCHEME  tvd
END options

