# File generated by Flopy version 3.3.6 on 12/07/2022 at 20:40:46.
BEGIN options
  SAVE_FLOWS
END options

BEGIN packages
  DIS6  trans.dis  dis
  IC6  trans.ic  ic
  MST6  trans.mst  mst
  ADV6  trans.adv  adv
  DSP6  trans.dsp  dsp
  FMI6  trans.fmi  fmi
  SSM6  trans.ssm  ssm
  OBS6  trans.obs  obs_0
  OC6  trans.oc  oc
END packages

