# File generated by Flopy version 3.3.6 on 12/07/2022 at 20:40:46.
BEGIN options
  BUDGET  FILEOUT  flow.bud
  HEAD  FILEOUT  flow.hds
END options

BEGIN period  1
  SAVE  HEAD  ALL
  SAVE  BUDGET  ALL
END period  1

