[Desktop Entry]
Type=Application
Terminal=false
Exec=@CMAKE_INSTALL_PREFIX@/@CMAKE_INSTALL_BINDIR@/@PROJECT_NAME@
Name=Model Viewer for MODFLOW 6
Icon=gov.usgs.mvmf6.png
