# File generated by Flopy version 3.3.5 on 03/04/2022 at 11:13:58.
BEGIN options
END options

BEGIN dimensions
  MAXBOUND  1880
END dimensions

BEGIN period  1
  1 3060       0.00400000
  1 3180       0.00400000
  1 3186       0.00400000
  1 3195       0.00400000
  1 3196       0.00400000
  1 3198       0.00400000
  1 3207       0.00400000
  1 3226       0.00400000
  1 3234       0.00400000
  1 3235       0.00400000
  1 3236       0.00400000
  1 3237       0.00400000
  1 3238       0.00400000
  1 3239       0.00400000
  1 3240       0.00400000
  1 3241       0.00400000
  1 3242       0.00400000
  1 3243       0.00400000
  1 3244       0.00400000
  1 3245       0.00400000
  1 3246       0.00400000
  1 3247       0.00400000
  1 3248       0.00400000
  1 3249       0.00400000
  1 3250       0.00400000
  1 3251       0.00400000
  1 3252       0.00400000
  1 3253       0.00400000
  1 3254       0.00400000
  1 3255       0.00400000
  1 3256       0.00400000
  1 3258       0.00400000
  1 3271       0.00400000
  1 3277       0.00400000
  1 3278       0.00400000
  1 3279       0.00400000
  1 3280       0.00400000
  1 3281       0.00400000
  1 3282       0.00400000
  1 3283       0.00400000
  1 3284       0.00400000
  1 3285       0.00400000
  1 3286       0.00400000
  1 3287       0.00400000
  1 3288       0.00400000
  1 3289       0.00400000
  1 3290       0.00400000
  1 3291       0.00400000
  1 3292       0.00400000
  1 3293       0.00400000
  1 3294       0.00400000
  1 3295       0.00400000
  1 3296       0.00400000
  1 3297       0.00400000
  1 3298       0.00400000
  1 3299       0.00400000
  1 3300       0.00400000
  1 3301       0.00400000
  1 3302       0.00400000
  1 3303       0.00400000
  1 3304       0.00400000
  1 3305       0.00400000
  1 3306       0.00400000
  1 3307       0.00400000
  1 3308       0.00400000
  1 3309       0.00400000
  1 3310       0.00400000
  1 3311       0.00400000
  1 3312       0.00400000
  1 3313       0.00400000
  1 3314       0.00400000
  1 3315       0.00400000
  1 3316       0.00400000
  1 3317       0.00400000
  1 3318       0.00400000
  1 3319       0.00400000
  1 3320       0.00400000
  1 3321       0.00400000
  1 3323       0.00400000
  1 3346       0.00400000
  1 3347       0.00400000
  1 3348       0.00400000
  1 3349       0.00400000
  1 3350       0.00400000
  1 3351       0.00400000
  1 3352       0.00400000
  1 3353       0.00400000
  1 3354       0.00400000
  1 3355       0.00400000
  1 3356       0.00400000
  1 3357       0.00400000
  1 3358       0.00400000
  1 3359       0.00400000
  1 3360       0.00400000
  1 3361       0.00400000
  1 3362       0.00400000
  1 3363       0.00400000
  1 3364       0.00400000
  1 3365       0.00400000
  1 3366       0.00400000
  1 3367       0.00400000
  1 3368       0.00400000
  1 3369       0.00400000
  1 3370       0.00400000
  1 3371       0.00400000
  1 3374       0.00400000
  1 3375       0.00400000
  1 3377       0.00400000
  1 3385       0.00400000
  1 3386       0.00400000
  1 3387       0.00400000
  1 3388       0.00400000
  1 3389       0.00400000
  1 3390       0.00400000
  1 3391       0.00400000
  1 3392       0.00400000
  1 3393       0.00400000
  1 3394       0.00400000
  1 3395       0.00400000
  1 3396       0.00400000
  1 3397       0.00400000
  1 3398       0.00400000
  1 3400       0.00400000
  1 3422       0.00400000
  1 3428       0.00400000
  1 3429       0.00400000
  1 3430       0.00400000
  1 3431       0.00400000
  1 3432       0.00400000
  1 3433       0.00400000
  1 3434       0.00400000
  1 3435       0.00400000
  1 3436       0.00400000
  1 3437       0.00400000
  1 3438       0.00400000
  1 3439       0.00400000
  1 3440       0.00400000
  1 3441       0.00400000
  1 3442       0.00400000
  1 3443       0.00400000
  1 3444       0.00400000
  1 3445       0.00400000
  1 3446       0.00400000
  1 3447       0.00400000
  1 3448       0.00400000
  1 3449       0.00400000
  1 3450       0.00400000
  1 3451       0.00400000
  1 3452       0.00400000
  1 3453       0.00400000
  1 3454       0.00400000
  1 3455       0.00400000
  1 3456       0.00400000
  1 3457       0.00400000
  1 3458       0.00400000
  1 3459       0.00400000
  1 3461       0.00400000
  1 3469       0.00400000
  1 3470       0.00400000
  1 3471       0.00400000
  1 3472       0.00400000
  1 3473       0.00400000
  1 3474       0.00400000
  1 3475       0.00400000
  1 3476       0.00400000
  1 3477       0.00400000
  1 3478       0.00400000
  1 3479       0.00400000
  1 3480       0.00400000
  1 3481       0.00400000
  1 3482       0.00400000
  1 3483       0.00400000
  1 3484       0.00400000
  1 3485       0.00400000
  1 3486       0.00400000
  1 3487       0.00400000
  1 3488       0.00400000
  1 3489       0.00400000
  1 3490       0.00400000
  1 3491       0.00400000
  1 3492       0.00400000
  1 3493       0.00400000
  1 3494       0.00400000
  1 3495       0.00400000
  1 3496       0.00400000
  1 3497       0.00400000
  1 3498       0.00400000
  1 3499       0.00400000
  1 3500       0.00400000
  1 3501       0.00400000
  1 3502       0.00400000
  1 3503       0.00400000
  1 3504       0.00400000
  1 3505       0.00400000
  1 3506       0.00400000
  1 3507       0.00400000
  1 3508       0.00400000
  1 3509       0.00400000
  1 3510       0.00400000
  1 3511       0.00400000
  1 3512       0.00400000
  1 3513       0.00400000
  1 3514       0.00400000
  1 3515       0.00400000
  1 3516       0.00400000
  1 3517       0.00400000
  1 3518       0.00400000
  1 3519       0.00400000
  1 3520       0.00400000
  1 3521       0.00400000
  1 3522       0.00400000
  1 3523       0.00400000
  1 3524       0.00400000
  1 3525       0.00400000
  1 3526       0.00400000
  1 3527       0.00400000
  1 3528       0.00400000
  1 3529       0.00400000
  1 3530       0.00400000
  1 3531       0.00400000
  1 3532       0.00400000
  1 3533       0.00400000
  1 3534       0.00400000
  1 3535       0.00400000
  1 3536       0.00400000
  1 3537       0.00400000
  1 3538       0.00400000
  1 3539       0.00400000
  1 3540       0.00400000
  1 3541       0.00400000
  1 3542       0.00400000
  1 3543       0.00400000
  1 3544       0.00400000
  1 3545       0.00400000
  1 3546       0.00400000
  1 3547       0.00400000
  1 3548       0.00400000
  1 3549       0.00400000
  1 3550       0.00400000
  1 3551       0.00400000
  1 3552       0.00400000
  1 3553       0.00400000
  1 3554       0.00400000
  1 3555       0.00400000
  1 3556       0.00400000
  1 3557       0.00400000
  1 3558       0.00400000
  1 3559       0.00400000
  1 3560       0.00400000
  1 3561       0.00400000
  1 3562       0.00400000
  1 3563       0.00400000
  1 3564       0.00400000
  1 3565       0.00400000
  1 3566       0.00400000
  1 3567       0.00400000
  1 3568       0.00400000
  1 3569       0.00400000
  1 3570       0.00400000
  1 3571       0.00400000
  1 3572       0.00400000
  1 3573       0.00400000
  1 3574       0.00400000
  1 3575       0.00400000
  1 3576       0.00400000
  1 3577       0.00400000
  1 3578       0.00400000
  1 3579       0.00400000
  1 3580       0.00400000
  1 3581       0.00400000
  1 3582       0.00400000
  1 3583       0.00400000
  1 3584       0.00400000
  1 3585       0.00400000
  1 3586       0.00400000
  1 3587       0.00400000
  1 3588       0.00400000
  1 3589       0.00400000
  1 3590       0.00400000
  1 3591       0.00400000
  1 3592       0.00400000
  1 3593       0.00400000
  1 3594       0.00400000
  1 3595       0.00400000
  1 3596       0.00400000
  1 3597       0.00400000
  1 3598       0.00400000
  1 3599       0.00400000
  1 3600       0.00400000
  1 3601       0.00400000
  1 3602       0.00400000
  1 3603       0.00400000
  1 3604       0.00400000
  1 3605       0.00400000
  1 3606       0.00400000
  1 3607       0.00400000
  1 3608       0.00400000
  1 3609       0.00400000
  1 3610       0.00400000
  1 3611       0.00400000
  1 3612       0.00400000
  1 3613       0.00400000
  1 3614       0.00400000
  1 3615       0.00400000
  1 3616       0.00400000
  1 3617       0.00400000
  1 3618       0.00400000
  1 3619       0.00400000
  1 3620       0.00400000
  1 3621       0.00400000
  1 3622       0.00400000
  1 3623       0.00400000
  1 3624       0.00400000
  1 3625       0.00400000
  1 3626       0.00400000
  1 3627       0.00400000
  1 3628       0.00400000
  1 3629       0.00400000
  1 3630       0.00400000
  1 3631       0.00400000
  1 3632       0.00400000
  1 3633       0.00400000
  1 3634       0.00400000
  1 3635       0.00400000
  1 3636       0.00400000
  1 3637       0.00400000
  1 3638       0.00400000
  1 3639       0.00400000
  1 3640       0.00400000
  1 3641       0.00400000
  1 3642       0.00400000
  1 3643       0.00400000
  1 3644       0.00400000
  1 3645       0.00400000
  1 3646       0.00400000
  1 3647       0.00400000
  1 3648       0.00400000
  1 3649       0.00400000
  1 3650       0.00400000
  1 3651       0.00400000
  1 3652       0.00400000
  1 3653       0.00400000
  1 3654       0.00400000
  1 3655       0.00400000
  1 3656       0.00400000
  1 3657       0.00400000
  1 3658       0.00400000
  1 3659       0.00400000
  1 3660       0.00400000
  1 3661       0.00400000
  1 3662       0.00400000
  1 3663       0.00400000
  1 3664       0.00400000
  1 3665       0.00400000
  1 3666       0.00400000
  1 3667       0.00400000
  1 3668       0.00400000
  1 3669       0.00400000
  1 3670       0.00400000
  1 3671       0.00400000
  1 3672       0.00400000
  1 3673       0.00400000
  1 3674       0.00400000
  1 3675       0.00400000
  1 3676       0.00400000
  1 3677       0.00400000
  1 3678       0.00400000
  1 3679       0.00400000
  1 3680       0.00400000
  1 3681       0.00400000
  1 3682       0.00400000
  1 3683       0.00400000
  1 3684       0.00400000
  1 3685       0.00400000
  1 3686       0.00400000
  1 3687       0.00400000
  1 3688       0.00400000
  1 3689       0.00400000
  1 3690       0.00400000
  1 3691       0.00400000
  1 3692       0.00400000
  1 3693       0.00400000
  1 3694       0.00400000
  1 3695       0.00400000
  1 3696       0.00400000
  1 3697       0.00400000
  1 3698       0.00400000
  1 3699       0.00400000
  1 3700       0.00400000
  1 3701       0.00400000
  1 3702       0.00400000
  1 3703       0.00400000
  1 3704       0.00400000
  1 3705       0.00400000
  1 3706       0.00400000
  1 3707       0.00400000
  1 3708       0.00400000
  1 3709       0.00400000
  1 3710       0.00400000
  1 3711       0.00400000
  1 3712       0.00400000
  1 3713       0.00400000
  1 3714       0.00400000
  1 3715       0.00400000
  1 3716       0.00400000
  1 3717       0.00400000
  1 3718       0.00400000
  1 3719       0.00400000
  1 3720       0.00400000
  1 3721       0.00400000
  1 3722       0.00400000
  1 3723       0.00400000
  1 3724       0.00400000
  1 3725       0.00400000
  1 3726       0.00400000
  1 3727       0.00400000
  1 3728       0.00400000
  1 3729       0.00400000
  1 3730       0.00400000
  1 3731       0.00400000
  1 3732       0.00400000
  1 3733       0.00400000
  1 3734       0.00400000
  1 3735       0.00400000
  1 3736       0.00400000
  1 3737       0.00400000
  1 3738       0.00400000
  1 3739       0.00400000
  1 3740       0.00400000
  1 3741       0.00400000
  1 3742       0.00400000
  1 3743       0.00400000
  1 3744       0.00400000
  1 3745       0.00400000
  1 3746       0.00400000
  1 3747       0.00400000
  1 3748       0.00400000
  1 3749       0.00400000
  1 3750       0.00400000
  1 3751       0.00400000
  1 3752       0.00400000
  1 3753       0.00400000
  1 3754       0.00400000
  1 3755       0.00400000
  1 3756       0.00400000
  1 3757       0.00400000
  1 3758       0.00400000
  1 3759       0.00400000
  1 3760       0.00400000
  1 3761       0.00400000
  1 3762       0.00400000
  1 3763       0.00400000
  1 3764       0.00400000
  1 3765       0.00400000
  1 3766       0.00400000
  1 3767       0.00400000
  1 3768       0.00400000
  1 3769       0.00400000
  1 3770       0.00400000
  1 3771       0.00400000
  1 3772       0.00400000
  1 3773       0.00400000
  1 3775       0.00400000
  1 3806       0.00400000
  1 3807       0.00400000
  1 3808       0.00400000
  1 3809       0.00400000
  1 3810       0.00400000
  1 3811       0.00400000
  1 3812       0.00400000
  1 3813       0.00400000
  1 3814       0.00400000
  1 3815       0.00400000
  1 3816       0.00400000
  1 3817       0.00400000
  1 3818       0.00400000
  1 3819       0.00400000
  1 3820       0.00400000
  1 3821       0.00400000
  1 3822       0.00400000
  1 3823       0.00400000
  1 3824       0.00400000
  1 3825       0.00400000
  1 3826       0.00400000
  1 3827       0.00400000
  1 3828       0.00400000
  1 3829       0.00400000
  1 3830       0.00400000
  1 3831       0.00400000
  1 3832       0.00400000
  1 3833       0.00400000
  1 3834       0.00400000
  1 3835       0.00400000
  1 3836       0.00400000
  1 3837       0.00400000
  1 3838       0.00400000
  1 3839       0.00400000
  1 3840       0.00400000
  1 3841       0.00400000
  1 3842       0.00400000
  1 3843       0.00400000
  1 3844       0.00400000
  1 3846       0.00400000
  1 3857       0.00400000
  1 3865       0.00400000
  1 3866       0.00400000
  1 3867       0.00400000
  1 3868       0.00400000
  1 3869       0.00400000
  1 3870       0.00400000
  1 3871       0.00400000
  1 3872       0.00400000
  1 3873       0.00400000
  1 3874       0.00400000
  1 3875       0.00400000
  1 3876       0.00400000
  1 3877       0.00400000
  1 3878       0.00400000
  1 3879       0.00400000
  1 3880       0.00400000
  1 3881       0.00400000
  1 3882       0.00400000
  1 3883       0.00400000
  1 3884       0.00400000
  1 3885       0.00400000
  1 3886       0.00400000
  1 3887       0.00400000
  1 3888       0.00400000
  1 3889       0.00400000
  1 3890       0.00400000
  1 3891       0.00400000
  1 3892       0.00400000
  1 3893       0.00400000
  1 3894       0.00400000
  1 3895       0.00400000
  1 3896       0.00400000
  1 3897       0.00400000
  1 3898       0.00400000
  1 3899       0.00400000
  1 3900       0.00400000
  1 3901       0.00400000
  1 3902       0.00400000
  1 3903       0.00400000
  1 3904       0.00400000
  1 3905       0.00400000
  1 3906       0.00400000
  1 3907       0.00400000
  1 3908       0.00400000
  1 3909       0.00400000
  1 3910       0.00400000
  1 3911       0.00400000
  1 3912       0.00400000
  1 3913       0.00400000
  1 3914       0.00400000
  1 3915       0.00400000
  1 3916       0.00400000
  1 3917       0.00400000
  1 3918       0.00400000
  1 3919       0.00400000
  1 3920       0.00400000
  1 3921       0.00400000
  1 3922       0.00400000
  1 3923       0.00400000
  1 3924       0.00400000
  1 3925       0.00400000
  1 3926       0.00400000
  1 3927       0.00400000
  1 3928       0.00400000
  1 3929       0.00400000
  1 3930       0.00400000
  1 3931       0.00400000
  1 3932       0.00400000
  1 3933       0.00400000
  1 3934       0.00400000
  1 3935       0.00400000
  1 3936       0.00400000
  1 3937       0.00400000
  1 3938       0.00400000
  1 3939       0.00400000
  1 3940       0.00400000
  1 3941       0.00400000
  1 3942       0.00400000
  1 3943       0.00400000
  1 3944       0.00400000
  1 3945       0.00400000
  1 3946       0.00400000
  1 3947       0.00400000
  1 3948       0.00400000
  1 3949       0.00400000
  1 3950       0.00400000
  1 3951       0.00400000
  1 3952       0.00400000
  1 3953       0.00400000
  1 3954       0.00400000
  1 3955       0.00400000
  1 3956       0.00400000
  1 3957       0.00400000
  1 3958       0.00400000
  1 3959       0.00400000
  1 3960       0.00400000
  1 3961       0.00400000
  1 3962       0.00400000
  1 3963       0.00400000
  1 3964       0.00400000
  1 3965       0.00400000
  1 3966       0.00400000
  1 3967       0.00400000
  1 3968       0.00400000
  1 3969       0.00400000
  1 3970       0.00400000
  1 3971       0.00400000
  1 3972       0.00400000
  1 3973       0.00400000
  1 3974       0.00400000
  1 3975       0.00400000
  1 3976       0.00400000
  1 3977       0.00400000
  1 3978       0.00400000
  1 3979       0.00400000
  1 3980       0.00400000
  1 3981       0.00400000
  1 3982       0.00400000
  1 3983       0.00400000
  1 3984       0.00400000
  1 3985       0.00400000
  1 3986       0.00400000
  1 3987       0.00400000
  1 3988       0.00400000
  1 3989       0.00400000
  1 3990       0.00400000
  1 3991       0.00400000
  1 3992       0.00400000
  1 3993       0.00400000
  1 3994       0.00400000
  1 3995       0.00400000
  1 3996       0.00400000
  1 3997       0.00400000
  1 3998       0.00400000
  1 3999       0.00400000
  1 4000       0.00400000
  1 4001       0.00400000
  1 4002       0.00400000
  1 4003       0.00400000
  1 4004       0.00400000
  1 4005       0.00400000
  1 4006       0.00400000
  1 4007       0.00400000
  1 4008       0.00400000
  1 4009       0.00400000
  1 4010       0.00400000
  1 4011       0.00400000
  1 4012       0.00400000
  1 4013       0.00400000
  1 4014       0.00400000
  1 4015       0.00400000
  1 4016       0.00400000
  1 4017       0.00400000
  1 4018       0.00400000
  1 4019       0.00400000
  1 4020       0.00400000
  1 4021       0.00400000
  1 4022       0.00400000
  1 4023       0.00400000
  1 4024       0.00400000
  1 4025       0.00400000
  1 4026       0.00400000
  1 4027       0.00400000
  1 4028       0.00400000
  1 4029       0.00400000
  1 4030       0.00400000
  1 4031       0.00400000
  1 4032       0.00400000
  1 4033       0.00400000
  1 4034       0.00400000
  1 4035       0.00400000
  1 4036       0.00400000
  1 4037       0.00400000
  1 4038       0.00400000
  1 4039       0.00400000
  1 4040       0.00400000
  1 4041       0.00400000
  1 4042       0.00400000
  1 4043       0.00400000
  1 4044       0.00400000
  1 4045       0.00400000
  1 4046       0.00400000
  1 4047       0.00400000
  1 4048       0.00400000
  1 4049       0.00400000
  1 4050       0.00400000
  1 4051       0.00400000
  1 4052       0.00400000
  1 4053       0.00400000
  1 4054       0.00400000
  1 4055       0.00400000
  1 4056       0.00400000
  1 4057       0.00400000
  1 4058       0.00400000
  1 4059       0.00400000
  1 4060       0.00400000
  1 4061       0.00400000
  1 4062       0.00400000
  1 4063       0.00400000
  1 4064       0.00400000
  1 4065       0.00400000
  1 4066       0.00400000
  1 4067       0.00400000
  1 4068       0.00400000
  1 4069       0.00400000
  1 4070       0.00400000
  1 4071       0.00400000
  1 4072       0.00400000
  1 4073       0.00400000
  1 4074       0.00400000
  1 4075       0.00400000
  1 4076       0.00400000
  1 4077       0.00400000
  1 4078       0.00400000
  1 4079       0.00400000
  1 4080       0.00400000
  1 4081       0.00400000
  1 4082       0.00400000
  1 4083       0.00400000
  1 4084       0.00400000
  1 4085       0.00400000
  1 4086       0.00400000
  1 4087       0.00400000
  1 4088       0.00400000
  1 4089       0.00400000
  1 4090       0.00400000
  1 4091       0.00400000
  1 4092       0.00400000
  1 4093       0.00400000
  1 4094       0.00400000
  1 4095       0.00400000
  1 4096       0.00400000
  1 4097       0.00400000
  1 4098       0.00400000
  1 4099       0.00400000
  1 4100       0.00400000
  1 4101       0.00400000
  1 4102       0.00400000
  1 4103       0.00400000
  1 4104       0.00400000
  1 4105       0.00400000
  1 4106       0.00400000
  1 4107       0.00400000
  1 4108       0.00400000
  1 4109       0.00400000
  1 4110       0.00400000
  1 4111       0.00400000
  1 4112       0.00400000
  1 4113       0.00400000
  1 4114       0.00400000
  1 4115       0.00400000
  1 4116       0.00400000
  1 4117       0.00400000
  1 4118       0.00400000
  1 4119       0.00400000
  1 4120       0.00400000
  1 4121       0.00400000
  1 4122       0.00400000
  1 4123       0.00400000
  1 4124       0.00400000
  1 4125       0.00400000
  1 4126       0.00400000
  1 4127       0.00400000
  1 4128       0.00400000
  1 4129       0.00400000
  1 4130       0.00400000
  1 4131       0.00400000
  1 4132       0.00400000
  1 4133       0.00400000
  1 4134       0.00400000
  1 4135       0.00400000
  1 4136       0.00400000
  1 4137       0.00400000
  1 4138       0.00400000
  1 4139       0.00400000
  1 4140       0.00400000
  1 4141       0.00400000
  1 4142       0.00400000
  1 4143       0.00400000
  1 4144       0.00400000
  1 4145       0.00400000
  1 4146       0.00400000
  1 4147       0.00400000
  1 4148       0.00400000
  1 4149       0.00400000
  1 4150       0.00400000
  1 4151       0.00400000
  1 4152       0.00400000
  1 4153       0.00400000
  1 4154       0.00400000
  1 4155       0.00400000
  1 4156       0.00400000
  1 4157       0.00400000
  1 4158       0.00400000
  1 4159       0.00400000
  1 4160       0.00400000
  1 4161       0.00400000
  1 4162       0.00400000
  1 4163       0.00400000
  1 4164       0.00400000
  1 4165       0.00400000
  1 4166       0.00400000
  1 4167       0.00400000
  1 4168       0.00400000
  1 4169       0.00400000
  1 4170       0.00400000
  1 4171       0.00400000
  1 4172       0.00400000
  1 4173       0.00400000
  1 4174       0.00400000
  1 4175       0.00400000
  1 4176       0.00400000
  1 4177       0.00400000
  1 4178       0.00400000
  1 4179       0.00400000
  1 4180       0.00400000
  1 4181       0.00400000
  1 4182       0.00400000
  1 4183       0.00400000
  1 4184       0.00400000
  1 4185       0.00400000
  1 4186       0.00400000
  1 4187       0.00400000
  1 4188       0.00400000
  1 4189       0.00400000
  1 4190       0.00400000
  1 4191       0.00400000
  1 4192       0.00400000
  1 4193       0.00400000
  1 4194       0.00400000
  1 4195       0.00400000
  1 4196       0.00400000
  1 4197       0.00400000
  1 4198       0.00400000
  1 4199       0.00400000
  1 4200       0.00400000
  1 4201       0.00400000
  1 4202       0.00400000
  1 4203       0.00400000
  1 4204       0.00400000
  1 4205       0.00400000
  1 4206       0.00400000
  1 4207       0.00400000
  1 4208       0.00400000
  1 4209       0.00400000
  1 4210       0.00400000
  1 4211       0.00400000
  1 4212       0.00400000
  1 4213       0.00400000
  1 4214       0.00400000
  1 4215       0.00400000
  1 4216       0.00400000
  1 4217       0.00400000
  1 4218       0.00400000
  1 4219       0.00400000
  1 4220       0.00400000
  1 4221       0.00400000
  1 4222       0.00400000
  1 4223       0.00400000
  1 4224       0.00400000
  1 4225       0.00400000
  1 4226       0.00400000
  1 4227       0.00400000
  1 4228       0.00400000
  1 4229       0.00400000
  1 4230       0.00400000
  1 4231       0.00400000
  1 4232       0.00400000
  1 4233       0.00400000
  1 4234       0.00400000
  1 4235       0.00400000
  1 4236       0.00400000
  1 4237       0.00400000
  1 4238       0.00400000
  1 4239       0.00400000
  1 4240       0.00400000
  1 4241       0.00400000
  1 4242       0.00400000
  1 4243       0.00400000
  1 4244       0.00400000
  1 4245       0.00400000
  1 4246       0.00400000
  1 4247       0.00400000
  1 4248       0.00400000
  1 4249       0.00400000
  1 4250       0.00400000
  1 4251       0.00400000
  1 4252       0.00400000
  1 4253       0.00400000
  1 4254       0.00400000
  1 4255       0.00400000
  1 4256       0.00400000
  1 4257       0.00400000
  1 4258       0.00400000
  1 4259       0.00400000
  1 4260       0.00400000
  1 4261       0.00400000
  1 4262       0.00400000
  1 4263       0.00400000
  1 4264       0.00400000
  1 4265       0.00400000
  1 4266       0.00400000
  1 4267       0.00400000
  1 4268       0.00400000
  1 4269       0.00400000
  1 4270       0.00400000
  1 4271       0.00400000
  1 4272       0.00400000
  1 4273       0.00400000
  1 4274       0.00400000
  1 4275       0.00400000
  1 4276       0.00400000
  1 4277       0.00400000
  1 4278       0.00400000
  1 4279       0.00400000
  1 4280       0.00400000
  1 4281       0.00400000
  1 4282       0.00400000
  1 4283       0.00400000
  1 4284       0.00400000
  1 4285       0.00400000
  1 4286       0.00400000
  1 4287       0.00400000
  1 4288       0.00400000
  1 4289       0.00400000
  1 4290       0.00400000
  1 4291       0.00400000
  1 4292       0.00400000
  1 4293       0.00400000
  1 4294       0.00400000
  1 4295       0.00400000
  1 4296       0.00400000
  1 4297       0.00400000
  1 4298       0.00400000
  1 4299       0.00400000
  1 4300       0.00400000
  1 4301       0.00400000
  1 4302       0.00400000
  1 4303       0.00400000
  1 4304       0.00400000
  1 4305       0.00400000
  1 4306       0.00400000
  1 4307       0.00400000
  1 4308       0.00400000
  1 4309       0.00400000
  1 4310       0.00400000
  1 4311       0.00400000
  1 4312       0.00400000
  1 4313       0.00400000
  1 4314       0.00400000
  1 4315       0.00400000
  1 4316       0.00400000
  1 4317       0.00400000
  1 4318       0.00400000
  1 4319       0.00400000
  1 4320       0.00400000
  1 4321       0.00400000
  1 4322       0.00400000
  1 4323       0.00400000
  1 4324       0.00400000
  1 4325       0.00400000
  1 4326       0.00400000
  1 4327       0.00400000
  1 4328       0.00400000
  1 4329       0.00400000
  1 4330       0.00400000
  1 4331       0.00400000
  1 4332       0.00400000
  1 4333       0.00400000
  1 4334       0.00400000
  1 4335       0.00400000
  1 4336       0.00400000
  1 4337       0.00400000
  1 4338       0.00400000
  1 4339       0.00400000
  1 4340       0.00400000
  1 4341       0.00400000
  1 4342       0.00400000
  1 4343       0.00400000
  1 4344       0.00400000
  1 4345       0.00400000
  1 4346       0.00400000
  1 4347       0.00400000
  1 4348       0.00400000
  1 4349       0.00400000
  1 4350       0.00400000
  1 4351       0.00400000
  1 4352       0.00400000
  1 4353       0.00400000
  1 4354       0.00400000
  1 4355       0.00400000
  1 4356       0.00400000
  1 4357       0.00400000
  1 4358       0.00400000
  1 4359       0.00400000
  1 4360       0.00400000
  1 4361       0.00400000
  1 4362       0.00400000
  1 4363       0.00400000
  1 4364       0.00400000
  1 4365       0.00400000
  1 4366       0.00400000
  1 4367       0.00400000
  1 4368       0.00400000
  1 4369       0.00400000
  1 4370       0.00400000
  1 4371       0.00400000
  1 4372       0.00400000
  1 4373       0.00400000
  1 4374       0.00400000
  1 4375       0.00400000
  1 4376       0.00400000
  1 4377       0.00400000
  1 4378       0.00400000
  1 4379       0.00400000
  1 4380       0.00400000
  1 4381       0.00400000
  1 4382       0.00400000
  1 4383       0.00400000
  1 4384       0.00400000
  1 4385       0.00400000
  1 4386       0.00400000
  1 4387       0.00400000
  1 4388       0.00400000
  1 4389       0.00400000
  1 4390       0.00400000
  1 4391       0.00400000
  1 4392       0.00400000
  1 4393       0.00400000
  1 4394       0.00400000
  1 4395       0.00400000
  1 4396       0.00400000
  1 4397       0.00400000
  1 4398       0.00400000
  1 4399       0.00400000
  1 4400       0.00400000
  1 4401       0.00400000
  1 4402       0.00400000
  1 4403       0.00400000
  1 4404       0.00400000
  1 4405       0.00400000
  1 4406       0.00400000
  1 4407       0.00400000
  1 4408       0.00400000
  1 4409       0.00400000
  1 4410       0.00400000
  1 4411       0.00400000
  1 4412       0.00400000
  1 4413       0.00400000
  1 4414       0.00400000
  1 4415       0.00400000
  1 4416       0.00400000
  1 4417       0.00400000
  1 4418       0.00400000
  1 4419       0.00400000
  1 4420       0.00400000
  1 4421       0.00400000
  1 4422       0.00400000
  1 4423       0.00400000
  1 4424       0.00400000
  1 4425       0.00400000
  1 4426       0.00400000
  1 4427       0.00400000
  1 4428       0.00400000
  1 4429       0.00400000
  1 4430       0.00400000
  1 4431       0.00400000
  1 4432       0.00400000
  1 4433       0.00400000
  1 4434       0.00400000
  1 4435       0.00400000
  1 4436       0.00400000
  1 4437       0.00400000
  1 4438       0.00400000
  1 4439       0.00400000
  1 4440       0.00400000
  1 4441       0.00400000
  1 4442       0.00400000
  1 4443       0.00400000
  1 4444       0.00400000
  1 4445       0.00400000
  1 4446       0.00400000
  1 4447       0.00400000
  1 4448       0.00400000
  1 4449       0.00400000
  1 4450       0.00400000
  1 4451       0.00400000
  1 4452       0.00400000
  1 4453       0.00400000
  1 4454       0.00400000
  1 4455       0.00400000
  1 4456       0.00400000
  1 4457       0.00400000
  1 4458       0.00400000
  1 4459       0.00400000
  1 4460       0.00400000
  1 4461       0.00400000
  1 4462       0.00400000
  1 4463       0.00400000
  1 4464       0.00400000
  1 4465       0.00400000
  1 4466       0.00400000
  1 4467       0.00400000
  1 4468       0.00400000
  1 4469       0.00400000
  1 4470       0.00400000
  1 4471       0.00400000
  1 4472       0.00400000
  1 4473       0.00400000
  1 4474       0.00400000
  1 4475       0.00400000
  1 4476       0.00400000
  1 4477       0.00400000
  1 4478       0.00400000
  1 4479       0.00400000
  1 4480       0.00400000
  1 4481       0.00400000
  1 4482       0.00400000
  1 4483       0.00400000
  1 4484       0.00400000
  1 4485       0.00400000
  1 4486       0.00400000
  1 4487       0.00400000
  1 4488       0.00400000
  1 4489       0.00400000
  1 4490       0.00400000
  1 4491       0.00400000
  1 4492       0.00400000
  1 4493       0.00400000
  1 4494       0.00400000
  1 4495       0.00400000
  1 4496       0.00400000
  1 4497       0.00400000
  1 4498       0.00400000
  1 4499       0.00400000
  1 4500       0.00400000
  1 4501       0.00400000
  1 4502       0.00400000
  1 4503       0.00400000
  1 4504       0.00400000
  1 4505       0.00400000
  1 4506       0.00400000
  1 4507       0.00400000