# File generated by Flopy version 3.3.5 on 03/04/2022 at 11:13:58.
BEGIN options
  LENGTH_UNITS  meters
END options

BEGIN dimensions
  NLAY  2
  NCPL  5240
  NVERT  2778
END dimensions

BEGIN griddata
  top
    CONSTANT       0.00000000
  botm  LAYERED
    CONSTANT     -20.00000000
    CONSTANT     -40.00000000
END griddata

BEGIN vertices
  1    1470.89530000       7.39437060
  2    1525.00000000       0.00000000
  3    1524.38950000      30.50732500
  4    1524.38950000     -30.50732000
  5    1475.69910000      59.45107900
  6    1523.77890000      61.01465000
  7    1521.94830000      91.47312000
  8    1471.54970000     -53.70288000
  9    1523.77890000     -61.01465000
  10    1521.94830000     -91.47312000
  11    1463.82410000     111.07067000
  12    1520.11770000     121.93159000
  13    1517.06990000     152.29243000
  14    1460.45120000     173.42613000
  15    1514.02210000     182.65327000
  16    1509.76200000     212.86786000
  17    1453.41980000     234.33117000
  18    1505.50190000     243.08244000
  19    1500.03630000     273.10239000
  20    1443.66220000     294.01616000
  21    1494.57080000     303.12234000
  22    1487.90850000     332.89958000
  23    1430.97930000     352.36941000
  24    1481.24630000     362.67682000
  25    1473.39800000     392.16366000
  26    1415.76260000     409.69203000
  27    1465.54970000     421.65051000
  28    1456.52790000     450.79973000
  29    1398.21420000     466.11678000
  30    1447.50610000     479.94895000
  31    1437.32530000     508.71388000
  32    1378.44280000     521.69410000
  33    1427.14450000     537.47881000
  34    1415.82100000     565.81337000
  35    1356.43440000     576.42565000
  36    1404.49750000     594.14794000
  37    1392.04940000     622.00676000
  38    1332.22160000     630.24424000
  39    1379.60130000     649.86559000
  40    1366.04850000     677.20407000
  41    1305.93430000     683.06052000
  42    1352.49580000     704.54255000
  43    1337.86010000     731.31689000
  44    1277.61550000     734.81395000
  45    1323.22430000     758.09124000
  46    1307.52910000     784.25858000
  47    1247.21060000     785.38284000
  48    1291.83390000     810.42592000
  49    1275.10430000     835.94434000
  50    1214.78670000     834.64515000
  51    1258.37470000     861.46277000
  52    1240.63750000     886.29142000
  53    1180.43750000     882.54984000
  54    1222.90030000     911.12007000
  55    1204.18400000     935.21918000
  56    1144.18670000     929.04443000
  57    1185.46760000     959.31829000
  58    1165.80200000     982.64927000
  59    1106.10660000     974.04575000
  60    1146.13640000    1005.98030000
  61    1125.55310000    1028.50570000
  62    1066.27470000    1017.48460000
  63    1104.96980000    1051.03120000
  64    1083.50180000    1072.71520000
  65    1024.69510000    1059.30230000
  66    1062.03370000    1094.39910000
  67    1039.71530000    1115.20670000
  68     981.43408000    1099.43060000
  69    1017.39690000    1136.01430000
  70     994.26383000    1155.91240000
  71     936.65007000    1137.83120000
  72     971.13077000    1175.81040000
  73     947.22012000    1194.76690000
  74     890.40825000    1174.46280000
  75     923.30947000    1213.72350000
  76     898.65952000    1231.70820000
  77     842.70618000    1209.19110000
  78     874.00957000    1249.69290000
  79     848.65980000    1266.67690000
  80     793.65336000    1241.92970000
  81     823.31003000    1283.66100000
  82     797.30103000    1299.61720000
  83     743.35537000    1272.66760000
  84     771.29203000    1315.57350000
  85     744.66545000    1330.47630000
  86     691.83015000    1301.35980000
  87     718.03888000    1345.37920000
  88     690.83736000    1359.20480000
  89     639.15794000    1327.96200000
  90     663.63585000    1373.03040000
  91     635.90296000    1385.75660000
  92     585.50065000    1352.48220000
  93     608.17006000    1398.48280000
  94     579.95021000    1410.08920000
  95     530.93181000    1374.89890000
  96     551.73035000    1421.69570000
  97     523.06872000    1432.16380000
  98     475.48599000    1395.08280000
  99     494.40709000    1442.63180000
  100     465.34959000    1451.94480000
  101     419.29231000    1412.98090000
  102     436.29209000    1461.25780000
  103     406.88524000    1469.40070000
  104     362.45525000    1428.61200000
  105     377.47840000    1477.54360000
  106     347.76931000    1484.50340000
  107     305.00448000    1441.93770000
  108     318.06021000    1491.46330000
  109     288.09645000    1497.22890000
  110     247.02937000    1452.93780000
  111     258.13268000    1502.99450000
  112     227.96223000    1507.55670000
  113     188.68339000    1461.66470000
  114     197.79177000    1512.11880000
  115     167.46295000    1515.47030000
  116     130.04304000    1468.11810000
  117     137.13412000    1518.82170000
  118     106.69549000    1520.95690000
  119      71.17734900    1472.18310000
  120      76.25686000    1523.09220000
  121      45.75717000    1524.00790000
  122      12.22514500    1473.84480000
  123      15.25748000    1524.92370000
  124     -15.25443000    1524.61840000
  125     -46.71794000    1473.15070000
  126     -45.76633000    1524.31310000
  127     -76.24159000    1522.78730000
  128    -105.59530000    1470.09020000
  129    -106.71690000    1521.26150000
  130    -137.10670000    1518.51760000
  131    -164.29740000    1464.67470000
  132    -167.49650000    1515.77370000
  133    -197.75220000    1511.81610000
  134    -222.72300000    1456.92810000
  135    -228.00790000    1507.85860000
  136    -258.08100000    1502.69360000
  137    -280.82170000    1446.82030000
  138    -288.15410000    1497.52870000
  139    -317.99650000    1491.16470000
  140    -338.49970000    1434.36640000
  141    -347.83890000    1484.80070000
  142    -377.40280000    1477.24780000
  143    -395.63450000    1419.67430000
  144    -406.96670000    1469.69490000
  145    -436.20470000    1460.96520000
  146    -452.15530000    1402.77370000
  147    -465.44280000    1452.23550000
  148    -494.30810000    1442.34300000
  149    -507.95320000    1383.58560000
  150    -523.17350000    1432.45050000
  151    -551.61990000    1421.41110000
  152    -562.89470000    1362.15030000
  153    -580.06630000    1410.37160000
  154    -608.04830000    1398.20280000
  155    -616.91020000    1338.54790000
  156    -636.03030000    1386.03410000
  157    -663.50300000    1372.75550000
  158    -669.95270000    1312.76740000
  159    -690.97570000    1359.47700000
  160    -717.89510000    1345.10990000
  161    -721.93980000    1284.84920000
  162    -744.81460000    1330.74270000
  163    -771.13760000    1315.31010000
  164    -772.78530000    1254.93050000
  165    -797.46070000    1299.87750000
  166    -823.14520000    1283.40400000
  167    -822.42950000    1223.05940000
  168    -848.82970000    1266.93060000
  169    -873.83460000    1249.44270000
  170    -870.74640000    1189.18990000
  171    -898.83950000    1231.95480000
  172    -923.12460000    1213.48050000
  173    -917.61870000    1153.39780000
  174    -947.40980000    1195.00610000
  175    -970.93640000    1175.57500000
  176    -963.00210000    1115.78010000
  177    -994.46290000    1156.14380000
  178   -1017.19300000    1135.78690000
  179   -1006.84600000    1076.36420000
  180   -1039.92400000    1115.43000000
  181   -1061.82100000    1094.18000000
  182   -1049.07200000    1035.22790000
  183   -1083.71900000    1072.92990000
  184   -1104.74900000    1050.82080000
  185   -1089.61700000     992.45339000
  186   -1125.77900000    1028.71170000
  187   -1145.90700000    1005.77890000
  188   -1128.42200000     948.04903000
  189   -1166.03500000     982.84604000
  190   -1185.23000000     959.12624000
  191   -1165.42400000     902.08554000
  192   -1204.42500000     935.40645000
  193   -1222.65600000     910.93767000
  194   -1200.59600000     854.72375000
  195   -1240.88600000     886.46889000
  196   -1258.12300000     861.29031000
  197   -1233.90200000     806.03151000
  198   -1275.36000000     836.11173000
  199   -1291.57500000     810.26367000
  200   -1265.20700000     756.01578000
  201   -1307.79100000     784.41562000
  202   -1322.95900000     757.93947000
  203   -1294.43200000     704.79187000
  204   -1338.12800000     731.46333000
  205   -1352.22500000     704.40150000
  206   -1321.57500000     652.46586000
  207   -1366.32200000     677.33967000
  208   -1379.32500000     649.73549000
  209   -1346.59100000     599.05879000
  210   -1392.32800000     622.13131000
  211   -1404.21600000     594.02899000
  212   -1369.44100000     544.65380000
  213   -1416.10500000     565.92667000
  214   -1426.85900000     537.37121000
  215   -1390.14600000     489.41190000
  216   -1437.61300000     508.81574000
  217   -1447.21600000     479.85287000
  218   -1408.68900000     433.40787000
  219   -1456.82000000     450.89000000
  220   -1465.25600000     421.56609000
  221   -1424.94300000     376.68527000
  222   -1473.69300000     392.24219000
  223   -1480.95000000     362.60422000
  224   -1438.86500000     319.37663000
  225   -1488.20600000     332.96624000
  226   -1494.27200000     303.06166000
  227   -1450.48000000     261.58485000
  228   -1500.33700000     273.15708000
  229   -1505.20000000     243.03378000
  230   -1459.75200000     203.34230000
  231   -1510.06400000     212.91048000
  232   -1513.71900000     182.61670000
  233   -1466.66800000     144.73983000
  234   -1517.37400000     152.32292000
  235   -1519.81300000     121.90718000
  236   -1471.30600000      85.94618200
  237   -1522.25300000      91.49143600
  238   -1523.47400000      61.00243500
  239   -1473.68700000      27.03387400
  240   -1524.69500000      30.51343400
  241   -1524.69500000       0.00000000
  242   -1473.67200000     -31.95664000
  243   -1524.69500000     -30.51343000
  244   -1523.47400000     -61.00244000
  245   -1471.19000000     -90.90821000
  246   -1522.25300000     -91.49144000
  247   -1519.81300000    -121.90720000
  248   -1466.29700000    -149.68800000
  249   -1517.37400000    -152.32290000
  250   -1513.71900000    -182.61670000
  251   -1459.07400000    -208.19990000
  252   -1510.06400000    -212.91050000
  253   -1505.20000000    -243.03380000
  254   -1449.57000000    -266.37850000
  255   -1500.33700000    -273.15710000
  256   -1494.27200000    -303.06170000
  257   -1437.77000000    -324.13310000
  258   -1488.20600000    -332.96620000
  259   -1480.95000000    -362.60420000
  260   -1423.62300000    -381.38770000
  261   -1473.69300000    -392.24220000
  262   -1465.25600000    -421.56610000
  263   -1407.16300000    -438.05490000
  264   -1456.82000000    -450.89000000
  265   -1447.21600000    -479.85290000
  266   -1388.50800000    -494.02230000
  267   -1437.61300000    -508.81570000
  268   -1426.85900000    -537.37120000
  269   -1367.69300000    -549.22200000
  270   -1416.10500000    -565.92670000
  271   -1404.21600000    -594.02900000
  272   -1344.64700000    -603.54050000
  273   -1392.32800000    -622.13130000
  274   -1379.32500000    -649.73550000
  275   -1319.41900000    -656.84720000
  276   -1366.32200000    -677.33970000
  277   -1352.22500000    -704.40150000
  278   -1292.09400000    -709.07860000
  279   -1338.12800000    -731.46330000
  280   -1322.95900000    -757.93950000
  281   -1262.66500000    -760.18690000
  282   -1307.79100000    -784.41560000
  283   -1291.57500000    -810.26370000
  284   -1231.17700000    -810.09290000
  285   -1275.36000000    -836.11170000
  286   -1258.12300000    -861.29030000
  287   -1197.77300000    -858.71990000
  288   -1240.88600000    -886.46890000
  289   -1222.65600000    -910.93770000
  290   -1162.50500000    -906.01190000
  291   -1204.42500000    -935.40640000
  292   -1185.23000000    -959.12620000
  293   -1125.33700000    -951.84010000
  294   -1166.03500000    -982.84600000
  295   -1145.90700000   -1005.77900000
  296   -1086.35200000    -996.09270000
  297   -1125.77900000   -1028.71200000
  298   -1104.74900000   -1050.82100000
  299   -1045.65100000   -1038.73200000
  300   -1083.71900000   -1072.93000000
  301   -1061.82100000   -1094.18000000
  302   -1003.26300000   -1079.71000000
  303   -1039.92400000   -1115.43000000
  304   -1017.19300000   -1135.78700000
  305    -959.27200000   -1118.95400000
  306    -994.46290000   -1156.14400000
  307    -970.93640000   -1175.57500000
  308    -913.76470000   -1156.40500000
  309    -947.40980000   -1195.00600000
  310    -923.12460000   -1213.48000000
  311    -866.75330000   -1192.00800000
  312    -898.83950000   -1231.95500000
  313    -873.83460000   -1249.44300000
  314    -818.31270000   -1225.70300000
  315    -848.82970000   -1266.93100000
  316    -823.14520000   -1283.40400000
  317    -768.60540000   -1257.47400000
  318    -797.46070000   -1299.87700000
  319    -771.13760000   -1315.31000000
  320    -717.70150000   -1287.29100000
  321    -744.81460000   -1330.74300000
  322    -717.89510000   -1345.11000000
  323    -665.61740000   -1315.01800000
  324    -690.97570000   -1359.47700000
  325    -663.50300000   -1372.75600000
  326    -612.47360000   -1340.58700000
  327    -636.03030000   -1386.03400000
  328    -608.04830000   -1398.20300000
  329    -558.37620000   -1364.00100000
  330    -580.06630000   -1410.37200000
  331    -551.61990000   -1421.41100000
  332    -503.34910000   -1385.21800000
  333    -523.17350000   -1432.45100000
  334    -494.30810000   -1442.34300000
  335    -447.47820000   -1404.20500000
  336    -465.44280000   -1452.23600000
  337    -436.20470000   -1460.96500000
  338    -390.92260000   -1420.99300000
  339    -406.96670000   -1469.69500000
  340    -377.40280000   -1477.24800000
  341    -333.75800000   -1435.57100000
  342    -347.83890000   -1484.80100000
  343    -317.99650000   -1491.16500000
  344    -276.03680000   -1447.81600000
  345    -288.15410000   -1497.52900000
  346    -258.08100000   -1502.69400000
  347    -217.89450000   -1457.69200000
  348    -228.00790000   -1507.85900000
  349    -197.75220000   -1511.81600000
  350    -159.43220000   -1465.23500000
  351    -167.49650000   -1515.77400000
  352    -137.10670000   -1518.51800000
  353    -100.70460000   -1470.42500000
  354    -106.71690000   -1521.26100000
  355     -76.24159000   -1522.78700000
  356     -41.82172000   -1473.26000000
  357     -45.76633000   -1524.31300000
  358     -15.25443000   -1524.61800000
  359      17.11289900   -1473.74700000
  360      15.25748000   -1524.92400000
  361      45.75717000   -1524.00800000
  362      76.05347400   -1471.85000000
  363      76.25686000   -1523.09200000
  364     106.69549000   -1520.95700000
  365     134.90502000   -1467.57200000
  366     137.13412000   -1518.82200000
  367     167.46295000   -1515.47000000
  368     193.53135000   -1461.00100000
  369     197.79177000   -1512.11900000
  370     227.96223000   -1507.55700000
  371     251.85791000   -1452.15800000
  372     258.13268000   -1502.99500000
  373     288.09645000   -1497.22900000
  374     309.78814000   -1440.94900000
  375     318.06021000   -1491.46300000
  376     347.76931000   -1484.50300000
  377     367.18407000   -1427.39500000
  378     377.47840000   -1477.54400000
  379     406.88524000   -1469.40100000
  380     423.96577000   -1411.56600000
  381     436.29209000   -1461.25800000
  382     465.34959000   -1451.94500000
  383     480.08802000   -1393.44400000
  384     494.40709000   -1442.63200000
  385     523.06872000   -1432.16400000
  386     535.46374000   -1373.05900000
  387     551.73035000   -1421.69600000
  388     579.95021000   -1410.08900000
  389     589.98829000   -1350.53300000
  390     608.17006000   -1398.48300000
  391     635.90296000   -1385.75700000
  392     643.59599000   -1325.90600000
  393     663.63585000   -1373.03000000
  394     690.83736000   -1359.20500000
  395     696.16847000   -1299.11400000
  396     718.03888000   -1345.37900000
  397     744.66545000   -1330.47600000
  398     747.57904000   -1270.21700000
  399     771.29203000   -1315.57300000
  400     797.30103000   -1299.61700000
  401     797.77019000   -1239.30400000
  402     823.31003000   -1283.66100000
  403     848.65980000   -1266.67700000
  404     846.69363000   -1206.37000000
  405     874.00957000   -1249.69300000
  406     898.65952000   -1231.70800000
  407     894.27359000   -1171.46700000
  408     923.30947000   -1213.72300000
  409     947.22012000   -1194.76700000
  410     940.43994000   -1134.76700000
  411     971.13077000   -1175.81000000
  412     994.26383000   -1155.91200000
  413     985.15338000   -1096.33500000
  414    1017.39690000   -1136.01400000
  415    1039.71530000   -1115.20700000
  416    1028.29070000   -1056.09800000
  417    1062.03370000   -1094.39900000
  418    1083.50180000   -1072.71500000
  419    1069.71740000   -1014.08300000
  420    1104.96980000   -1051.03100000
  421    1125.55310000   -1028.50600000
  422    1109.37440000    -970.42130000
  423    1146.13640000   -1005.98000000
  424    1165.80200000    -982.64930000
  425    1147.24590000    -925.23760000
  426    1185.46760000    -959.31830000
  427    1204.18400000    -935.21920000
  428    1183.31910000    -878.61380000
  429    1222.90030000    -911.12010000
  430    1240.63750000    -886.29140000
  431    1217.51600000    -830.59940000
  432    1258.37470000    -861.46280000
  433    1275.10430000    -835.94430000
  434    1249.74660000    -781.20880000
  435    1291.83390000    -810.42590000
  436    1307.52910000    -784.25860000
  437    1279.97040000    -730.52730000
  438    1323.22430000    -758.09120000
  439    1337.86010000    -731.31690000
  440    1308.18570000    -678.71770000
  441    1352.49580000    -704.54250000
  442    1366.04850000    -677.20410000
  443    1334.36650000    -625.85160000
  444    1379.60130000    -649.86560000
  445    1392.04940000    -622.00680000
  446    1358.38120000    -571.95440000
  447    1404.49750000    -594.14790000
  448    1415.82100000    -565.81340000
  449    1380.16810000    -517.15120000
  450    1427.14450000    -537.47880000
  451    1437.32530000    -508.71390000
  452    1399.73840000    -461.54720000
  453    1447.50610000    -479.94900000
  454    1456.52790000    -450.79970000
  455    1417.05140000    -405.16900000
  456    1465.54970000    -421.65050000
  457    1473.39800000    -392.16370000
  458    1432.07880000    -348.10180000
  459    1481.24630000    -362.67680000
  460    1487.90850000    -332.89960000
  461    1444.84080000    -290.47190000
  462    1494.57080000    -303.12230000
  463    1500.03630000    -273.10240000
  464    1455.22750000    -232.23470000
  465    1505.50190000    -243.08240000
  466    1509.76200000    -212.86790000
  467    1462.80290000    -173.13420000
  468    1514.02210000    -182.65330000
  469    1517.06990000    -152.29240000
  470    1467.37910000    -113.00480000
  471    1520.11770000    -121.93160000
  472    1412.02190000      53.44237200
  473    1411.22850000     130.79090000
  474    1405.20380000     195.19371000
  475    1397.46010000     255.66239000
  476    1386.88480000     313.37567000
  477    1373.90660000     369.85341000
  478    1358.19530000     425.08636000
  479    1340.14020000     479.25850000
  480    1319.88520000     532.54384000
  481    1297.43100000     584.95579000
  482    1272.90510000     636.42519000
  483    1246.46640000     686.90060000
  484    1218.06560000     736.32005000
  485    1187.64690000     784.49722000
  486    1155.32840000     831.33411000
  487    1121.16510000     876.83909000
  488    1085.18810000     920.93034000
  489    1047.50770000     963.53521000
  490    1008.13090000    1004.62350000
  491     967.05429000    1044.11790000
  492     924.42561000    1081.95760000
  493     880.41758000    1118.14340000
  494     835.01187000    1152.59460000
  495     788.23041000    1185.11640000
  496     740.21845000    1215.66420000
  497     691.00476000    1244.26800000
  498     640.60317000    1270.86520000
  499     589.16989000    1295.44160000
  500     536.86937000    1318.04650000
  501     483.70566000    1338.59760000
  502     429.75340000    1356.91400000
  503     375.16458000    1372.99290000
  504     319.95848000    1386.87140000
  505     264.16572000    1398.49290000
  506     207.94046000    1407.88720000
  507     151.42715000    1415.14700000
  508      94.65243800    1420.19430000
  509      37.73852100    1422.87620000
  510     -19.16611000    1423.23310000
  511     -76.03651000    1421.31490000
  512    -132.78790000    1417.10020000
  513    -189.29740000    1410.63760000
  514    -245.53610000    1401.91570000
  515    -301.44300000    1390.88730000
  516    -356.88320000    1377.63890000
  517    -411.75850000    1362.31210000
  518    -466.01330000    1344.84590000
  519    -519.47540000    1325.14640000
  520    -572.02500000    1303.30720000
  521    -623.67030000    1279.36910000
  522    -674.35190000    1253.30750000
  523    -723.96870000    1225.24240000
  524    -772.46680000    1195.33690000
  525    -819.77630000    1163.54710000
  526    -865.70620000    1129.83090000
  527    -910.16620000    1094.31320000
  528    -953.16860000    1057.04850000
  529    -994.63380000    1018.07340000
  530   -1034.49700000     977.50298000
  531   -1072.72900000     935.34665000
  532   -1109.25100000     891.60611000
  533   -1144.01500000     846.43319000
  534   -1177.03200000     800.00008000
  535   -1208.22000000     752.29411000
  536   -1237.38800000     703.35077000
  537   -1264.50100000     653.31811000
  538   -1289.59000000     602.22271000
  539   -1312.59400000     550.08278000
  540   -1333.51000000     497.05514000
  541   -1352.39900000     443.30042000
  542   -1369.17900000     388.82836000
  543   -1383.67400000     333.72610000
  544   -1395.89300000     278.14553000
  545   -1405.87300000     222.10351000
  546   -1413.56200000     165.63538000
  547   -1419.00500000     108.90778000
  548   -1422.33500000      52.07380200
  549   -1423.51400000      -4.84695300
  550   -1422.30100000     -61.80107000
  551   -1418.59900000    -118.63430000
  552   -1412.53800000    -175.25450000
  553   -1404.28200000    -231.58290000
  554   -1393.90100000    -287.52320000
  555   -1381.29700000    -343.04510000
  556   -1366.38500000    -398.05390000
  557   -1349.28900000    -452.43480000
  558   -1330.15900000    -506.10420000
  559   -1308.93700000    -559.00410000
  560   -1285.54400000    -610.95670000
  561   -1260.08000000    -661.84920000
  562   -1232.58600000    -711.69260000
  563   -1203.04000000    -760.42610000
  564   -1171.57100000    -807.95710000
  565   -1138.34400000    -854.24330000
  566   -1103.32100000    -899.21200000
  567   -1066.47200000    -942.66950000
  568   -1027.93000000    -984.53480000
  569    -987.74610000   -1024.82400000
  570    -945.96400000   -1063.45900000
  571    -902.70270000   -1100.38500000
  572    -857.97350000   -1135.57300000
  573    -811.78360000   -1168.94400000
  574    -764.28800000   -1200.46100000
  575    -715.65750000   -1230.14700000
  576    -665.88530000   -1257.92000000
  577    -615.02010000   -1283.59100000
  578    -563.21210000   -1307.13500000
  579    -510.48560000   -1328.58700000
  580    -456.86310000   -1347.88500000
  581    -402.50120000   -1365.03900000
  582    -347.55600000   -1380.11900000
  583    -292.04300000   -1393.04500000
  584    -236.06200000   -1403.64800000
  585    -179.76540000   -1411.94800000
  586    -123.18510000   -1417.99000000
  587     -66.40191000   -1421.74100000
  588      -9.54431000   -1423.23300000
  589      47.36068500   -1422.45000000
  590     104.25909000   -1419.33700000
  591     161.00555000   -1413.96000000
  592     217.48281000   -1406.44700000
  593     273.64441000   -1396.72800000
  594     329.33299000   -1384.68800000
  595     384.41675000   -1370.40100000
  596     438.89814000   -1353.90900000
  597     492.72186000   -1335.18100000
  598     545.77098000   -1314.32000000
  599     597.96943000   -1291.48000000
  600     649.25431000   -1266.60800000
  601     699.44234000   -1239.63500000
  602     748.42785000   -1210.67200000
  603     796.22461000   -1179.75600000
  604     842.77018000   -1146.87400000
  605     887.97443000   -1112.17200000
  606     931.81493000   -1075.85100000
  607     974.25348000   -1037.90000000
  608    1015.09100000    -998.18610000
  609    1054.14950000    -956.72710000
  610    1091.43340000    -913.67410000
  611    1126.98590000    -869.21740000
  612    1160.81960000    -823.47900000
  613    1192.83420000    -776.39960000
  614    1222.90080000    -727.98210000
  615    1251.01830000    -678.39430000
  616    1277.22870000    -627.80400000
  617    1301.45060000    -576.20920000
  618    1323.49820000    -523.67110000
  619    1343.35840000    -470.34060000
  620    1361.06620000    -416.23730000
  621    1376.56150000    -361.38000000
  622    1389.85290000    -305.88520000
  623    1400.91660000    -249.70880000
  624    1409.33820000    -192.43850000
  625    1414.47060000    -132.82430000
  626    1417.28140000     -70.97574000
  627    1425.45850000     -13.74361000
  628    1369.35660000     -15.31009000
  629    1366.45630000     -88.56673000
  630    1362.88700000    -151.10530000
  631    1356.72300000    -209.08910000
  632    1347.33500000    -264.42720000
  633    1335.66070000    -318.52850000
  634    1321.93830000    -371.89000000
  635    1306.06440000    -424.51570000
  636    1288.06840000    -476.38580000
  637    1267.98780000    -527.52250000
  638    1245.75310000    -577.85410000
  639    1221.44120000    -627.21120000
  640    1195.30820000    -675.60190000
  641    1167.39510000    -722.98180000
  642    1137.57610000    -769.14670000
  643    1105.89970000    -814.02900000
  644    1072.57150000    -857.66510000
  645    1037.69100000    -900.05430000
  646    1001.09160000    -940.98450000
  647     962.60849000    -980.21380000
  648     922.37593000   -1017.64100000
  649     880.71762000   -1053.45500000
  650     837.81802000   -1087.84100000
  651     793.66737000   -1120.62500000
  652     748.26139000   -1151.54000000
  653     701.66227000   -1180.56200000
  654     653.88730000   -1207.70500000
  655     604.94085000   -1232.84700000
  656     554.99364000   -1255.92400000
  657     504.24025000   -1277.10400000
  658     452.74352000   -1296.38000000
  659     400.56001000   -1313.52900000
  660     347.75343000   -1328.53000000
  661     294.33684000   -1341.40000000
  662     240.34768000   -1352.02300000
  663     185.96831000   -1360.38500000
  664     131.33947000   -1366.70100000
  665      76.52436200   -1370.98200000
  666      21.64160500   -1373.03000000
  667     -33.23514000   -1372.84700000
  668     -88.04961000   -1370.49000000
  669    -142.73440000   -1365.92700000
  670    -197.18720000   -1359.14800000
  671    -251.37930000   -1350.17800000
  672    -305.24020000   -1338.93400000
  673    -358.58330000   -1325.45500000
  674    -411.36090000   -1309.99400000
  675    -463.51940000   -1292.58600000
  676    -514.87370000   -1273.09200000
  677    -565.36120000   -1251.53600000
  678    -614.98210000   -1227.93900000
  679    -663.63520000   -1202.23600000
  680    -711.16880000   -1174.52900000
  681    -757.60960000   -1145.07600000
  682    -802.91530000   -1113.92300000
  683    -846.86870000   -1080.99100000
  684    -889.41410000   -1046.32900000
  685    -930.54390000   -1010.01600000
  686    -970.18480000    -972.06990000
  687   -1008.25200000    -932.54710000
  688   -1044.73800000    -891.48530000
  689   -1079.53600000    -848.86340000
  690   -1112.52500000    -804.82990000
  691   -1143.82800000    -759.61140000
  692   -1173.42500000    -713.26840000
  693   -1201.08400000    -665.80990000
  694   -1226.77300000    -617.29380000
  695   -1250.50500000    -567.73630000
  696   -1272.15900000    -517.15010000
  697   -1291.68200000    -465.70970000
  698   -1309.25700000    -413.59660000
  699   -1324.87800000    -360.87060000
  700   -1338.31100000    -307.57850000
  701   -1349.53800000    -253.79960000
  702   -1358.70900000    -199.64790000
  703   -1365.87500000    -145.21190000
  704   -1370.82100000     -90.54026000
  705   -1373.31200000     -35.67493000
  706   -1373.30500000      19.27122900
  707   -1371.11000000      74.16886200
  708   -1367.00900000     128.99627000
  709   -1360.88200000     183.64602000
  710   -1352.53100000     237.93925000
  711   -1341.98300000     291.81435000
  712   -1329.25800000     345.26776000
  713   -1314.27100000     398.21413000
  714   -1297.09100000     450.48376000
  715   -1277.97300000     502.04961000
  716   -1256.95600000     552.86117000
  717   -1233.91500000     602.72450000
  718   -1208.87800000     651.57868000
  719   -1181.86600000     699.42558000
  720   -1152.82100000     746.15971000
  721   -1121.85500000     791.63687000
  722   -1089.22300000     835.90154000
  723   -1054.97500000     878.91493000
  724   -1019.04800000     920.45484000
  725    -981.49270000     960.46911000
  726    -942.39040000     998.95568000
  727    -901.76230000    1035.84260000
  728    -859.67210000    1071.04900000
  729    -816.15730000    1104.57110000
  730    -771.20450000    1136.29950000
  731    -724.97000000    1166.12520000
  732    -677.67160000    1194.18590000
  733    -629.37090000    1220.46580000
  734    -580.09300000    1244.73520000
  735    -529.89810000    1266.96450000
  736    -478.80150000    1287.16840000
  737    -426.82430000    1305.22830000
  738    -374.14480000    1321.10280000
  739    -320.93250000    1334.98650000
  740    -267.25150000    1346.88150000
  741    -213.19170000    1356.57430000
  742    -158.82620000    1364.05740000
  743    -104.21890000    1369.37940000
  744     -49.43167000    1372.49820000