# File generated by Flopy version 3.3.5 on 03/04/2022 at 11:13:58.
BEGIN options
END options

BEGIN dimensions
  MAXBOUND  3360
END dimensions

BEGIN period  1
  1 1       0.00000000      16.46075404
  1 2       0.00000000      16.55103660
  1 3       0.00000000      14.67740801
  1 4       0.00000000      26.73701960
  1 5       0.00000000      14.67299419
  1 6       0.00000000      32.43545677
  1 7       0.00000000      15.97838007
  1 8       0.00000000      16.04206447
  1 9       0.00000000      17.34498927
  1 10       0.00000000      27.67626525
  1 11       0.00000000      17.42222895
  1 12       0.00000000      16.54580001
  1 13       0.00000000      34.59203226
  1 14       0.00000000      16.57931319
  1 15       0.00000000      16.10920062
  1 16       0.00000000      32.80606827
  1 17       0.00000000      16.11332979
  1 18       0.00000000      15.78043453
  1 19       0.00000000      31.60619393
  1 20       0.00000000      15.76585703
  1 21       0.00000000      15.65482550
  1 22       0.00000000      30.75069933
  1 23       0.00000000      15.63110632
  1 24       0.00000000      15.61918488
  1 25       0.00000000      30.37088185
  1 26       0.00000000      15.59142146
  1 27       0.00000000      15.61611509
  1 28       0.00000000      30.21546224
  1 29       0.00000000      15.58700609
  1 30       0.00000000      15.61601967
  1 31       0.00000000      30.15894423
  1 32       0.00000000      15.58679404
  1 33       0.00000000      15.62525622
  1 34       0.00000000      30.16761364
  1 35       0.00000000      15.59590090
  1 36       0.00000000      15.64191535
  1 37       0.00000000      30.20395383
  1 38       0.00000000      15.61213213
  1 39       0.00000000      15.64060145
  1 40       0.00000000      30.21058161
  1 41       0.00000000      15.61057978
  1 42       0.00000000      15.61827735
  1 43       0.00000000      30.18832146
  1 44       0.00000000      15.58802699
  1 45       0.00000000      15.60729212
  1 46       0.00000000      30.16056579
  1 47       0.00000000      15.57676822
  1 48       0.00000000      15.60945382
  1 49       0.00000000      30.13509116
  1 50       0.00000000      15.57900686
  1 51       0.00000000      15.61049883
  1 52       0.00000000      30.12382618
  1 53       0.00000000      15.58044684
  1 54       0.00000000      15.61450623
  1 55       0.00000000      30.13389492
  1 56       0.00000000      15.58477473
  1 57       0.00000000      15.61948551
  1 58       0.00000000      30.13994700
  1 59       0.00000000      15.59005680
  1 60       0.00000000      15.62126207
  1 61       0.00000000      30.13976879
  1 62       0.00000000      15.59242957
  1 63       0.00000000      15.63108081
  1 64       0.00000000      30.16863955
  1 65       0.00000000      15.60231074
  1 66       0.00000000      15.64789624
  1 67       0.00000000      30.21216458
  1 68       0.00000000      15.61885082
  1 69       0.00000000      15.64672081
  1 70       0.00000000      30.22151594
  1 71       0.00000000      15.61740748
  1 72       0.00000000      15.62444124
  1 73       0.00000000      30.20008235
  1 74       0.00000000      15.59492863
  1 75       0.00000000      15.61349423
  1 76       0.00000000      30.17276658
  1 77       0.00000000      15.58368090
  1 78       0.00000000      15.61570706
  1 79       0.00000000      30.14753784
  1 80       0.00000000      15.58597140
  1 81       0.00000000      15.61705281
  1 82       0.00000000      30.13687014
  1 83       0.00000000      15.58771835
  1 84       0.00000000      15.62671718
  1 85       0.00000000      30.16195063
  1 86       0.00000000      15.59746007
  1 87       0.00000000      15.64350326
  1 88       0.00000000      30.20413589
  1 89       0.00000000      15.61387758
  1 90       0.00000000      15.64225485
  1 91       0.00000000      30.21288852
  1 92       0.00000000      15.61240272
  1 93       0.00000000      15.61997399
  1 94       0.00000000      30.19124618
  1 95       0.00000000      15.58993763
  1 96       0.00000000      15.60897920
  1 97       0.00000000      30.16391515
  1 98       0.00000000      15.57867272
  1 99       0.00000000      15.61124973
  1 100       0.00000000      30.13862731
  1 101       0.00000000      15.58099065
  1 102       0.00000000      15.61255740
  1 103       0.00000000      30.12799406
  1 104       0.00000000      15.58271428
  1 105       0.00000000      15.62227578
  1 106       0.00000000      30.15303536
  1 107       0.00000000      15.59247309
  1 108       0.00000000      15.63904690
  1 109       0.00000000      30.19523381
  1 110       0.00000000      15.60888685
  1 111       0.00000000      15.63776746
  1 112       0.00000000      30.20396223
  1 113       0.00000000      15.60740053
  1 114       0.00000000      15.61545910
  1 115       0.00000000      30.18235228
  1 116       0.00000000      15.58488994
  1 117       0.00000000      15.60449538
  1 118       0.00000000      30.15484683
  1 119       0.00000000      15.57363076
  1 120       0.00000000      15.60667628
  1 121       0.00000000      30.12945470
  1 122       0.00000000      15.57589028
  1 123       0.00000000      15.60771506
  1 124       0.00000000      30.11826194
  1 125       0.00000000      15.57735476
  1 126       0.00000000      15.61172568
  1 127       0.00000000      30.12829098
  1 128       0.00000000      15.58163131
  1 129       0.00000000      15.61666401
  1 130       0.00000000      30.13440064
  1 131       0.00000000      15.58696772
  1 132       0.00000000      15.61852921
  1 133       0.00000000      30.13425534
  1 134       0.00000000      15.58934528
  1 135       0.00000000      15.62829897
  1 136       0.00000000      30.16307647
  1 137       0.00000000      15.59923750
  1 138       0.00000000      15.64515223
  1 139       0.00000000      30.20667545
  1 140       0.00000000      15.61572645
  1 141       0.00000000      15.64394990
  1 142       0.00000000      30.21588448
  1 143       0.00000000      15.61429009
  1 144       0.00000000      15.62164943
  1 145       0.00000000      30.19455423
  1 146       0.00000000      15.59176289
  1 147       0.00000000      15.61071702
  1 148       0.00000000      30.16715986
  1 149       0.00000000      15.58053471
  1 150       0.00000000      15.61288267
  1 151       0.00000000      30.14198523
  1 152       0.00000000      15.58286183
  1 153       0.00000000      15.61425609
  1 154       0.00000000      30.13127142
  1 155       0.00000000      15.58462287
  1 156       0.00000000      15.62392733
  1 157       0.00000000      30.15642303
  1 158       0.00000000      15.59433950
  1 159       0.00000000      15.64076900
  1 160       0.00000000      30.19858293
  1 161       0.00000000      15.61072239
  1 162       0.00000000      15.63949954
  1 163       0.00000000      30.20733910
  1 164       0.00000000      15.60931423
  1 165       0.00000000      15.61710891
  1 166       0.00000000      30.18569538
  1 167       0.00000000      15.58679026
  1 168       0.00000000      15.60621372
  1 169       0.00000000      30.15824302
  1 170       0.00000000      15.57550230
  1 171       0.00000000      15.60838585
  1 172       0.00000000      30.13282063
  1 173       0.00000000      15.57775674
  1 174       0.00000000      15.60937685
  1 175       0.00000000      30.12165982
  1 176       0.00000000      15.57915297
  1 177       0.00000000      15.61370238
  1 178       0.00000000      30.13159234
  1 179       0.00000000      15.58331323
  1 180       0.00000000      15.61850611
  1 181       0.00000000      30.13758063
  1 182       0.00000000      15.58887048
  1 183       0.00000000      15.62021533
  1 184       0.00000000      30.13770524
  1 185       0.00000000      15.59103177
  1 186       0.00000000      15.62967880
  1 187       0.00000000      30.16617840
  1 188       0.00000000      15.60101444
  1 189       0.00000000      15.64690397
  1 190       0.00000000      30.20972864
  1 191       0.00000000      15.61780399
  1 192       0.00000000      15.64561048
  1 193       0.00000000      30.21957082
  1 194       0.00000000      15.61635966
  1 195       0.00000000      15.62346322
  1 196       0.00000000      30.19824338
  1 197       0.00000000      15.59359639
  1 198       0.00000000      15.61245167
  1 199       0.00000000      30.17044965
  1 200       0.00000000      15.58229145
  1 201       0.00000000      15.61480790
  1 202       0.00000000      30.14503091
  1 203       0.00000000      15.58481295
  1 204       0.00000000      15.61581807
  1 205       0.00000000      30.13481283
  1 206       0.00000000      15.58638394
  1 207       0.00000000      15.62544358
  1 208       0.00000000      30.15955357
  1 209       0.00000000      15.59601928
  1 210       0.00000000      15.64279812
  1 211       0.00000000      30.20156619
  1 212       0.00000000      15.61280429
  1 213       0.00000000      15.64111390
  1 214       0.00000000      30.21093388
  1 215       0.00000000      15.61115626
  1 216       0.00000000      15.61910272
  1 217       0.00000000      30.18896899
  1 218       0.00000000      15.58868361
  1 219       0.00000000      15.60793859
  1 220       0.00000000      30.16151022
  1 221       0.00000000      15.57747606
  1 222       0.00000000      15.60973781
  1 223       0.00000000      30.13648622
  1 224       0.00000000      15.57956456
  1 225       0.00000000      15.61138220
  1 226       0.00000000      30.12570778
  1 227       0.00000000      15.58133123
  1 228       0.00000000      15.62103097
  1 229       0.00000000      30.15026815
  1 230       0.00000000      15.59112357
  1 231       0.00000000      15.63792603
  1 232       0.00000000      30.19261249
  1 233       0.00000000      15.60755669
  1 234       0.00000000      15.63121329
  1 235       0.00000000      30.18690592
  1 236       0.00000000      15.60093889
  1 237       0.00000000      15.59431506
  1 238       0.00000000      30.13946222
  1 239       0.00000000      15.56429241
  1 240       0.00000000      15.56886739
  1 241       0.00000000      30.09393646
  1 242       0.00000000      15.53878598
  1 243       0.00000000      15.57571931
  1 244       0.00000000      30.07997765
  1 245       0.00000000      15.54543034
  1 246       0.00000000      15.59969230
  1 247       0.00000000      30.09727787
  1 248       0.00000000      15.56946982
  1 249       0.00000000      15.61898105
  1 250       0.00000000      30.12595322
  1 251       0.00000000      15.58899425
  1 252       0.00000000      15.62233903
  1 253       0.00000000      30.14607489
  1 254       0.00000000      15.59279037
  1 255       0.00000000      15.61844947
  1 256       0.00000000      30.14607889
  1 257       0.00000000      15.58915142
  1 258       0.00000000      15.62745767
  1 259       0.00000000      30.16504280
  1 260       0.00000000      15.59827089
  1 261       0.00000000      15.64413806
  1 262       0.00000000      30.20562002
  1 263       0.00000000      15.61479026
  1 264       0.00000000      15.64279314
  1 265       0.00000000      30.21403962
  1 266       0.00000000      15.61306051
  1 267       0.00000000      15.62071210
  1 268       0.00000000      30.19271048
  1 269       0.00000000      15.59090726
  1 270       0.00000000      15.60953197
  1 271       0.00000000      30.16496698
  1 272       0.00000000      15.57932033
  1 273       0.00000000      15.61183770
  1 274       0.00000000      30.13977203
  1 275       0.00000000      15.58162378
  1 276       0.00000000      15.61320017
  1 277       0.00000000      30.12924556
  1 278       0.00000000      15.58358905
  1 279       0.00000000      15.62261410
  1 280       0.00000000      30.15385106
  1 281       0.00000000      15.59313960
  1 282       0.00000000      15.63937026
  1 283       0.00000000      30.19600738
  1 284       0.00000000      15.60952139
  1 285       0.00000000      15.63834495
  1 286       0.00000000      30.20501092
  1 287       0.00000000      15.60787644
  1 288       0.00000000      15.61619033
  1 289       0.00000000      30.18384206
  1 290       0.00000000      15.58561443
  1 291       0.00000000      15.60506671
  1 292       0.00000000      30.15598147
  1 293       0.00000000      15.57413989
  1 294       0.00000000      15.60740661
  1 295       0.00000000      30.13083998
  1 296       0.00000000      15.57675422
  1 297       0.00000000      15.60829352
  1 298       0.00000000      30.11931740
  1 299       0.00000000      15.57812804
  1 300       0.00000000      15.61207090
  1 301       0.00000000      30.12944084
  1 302       0.00000000      15.58259297
  1 303       0.00000000      15.61713570
  1 304       0.00000000      30.13552227
  1 305       0.00000000      15.58744913
  1 306       0.00000000      15.61908225
  1 307       0.00000000      30.13512278
  1 308       0.00000000      15.58992583
  1 309       0.00000000      15.62909435
  1 310       0.00000000      30.16416175
  1 311       0.00000000      15.59994206
  1 312       0.00000000      15.64583313
  1 313       0.00000000      30.20790265
  1 314       0.00000000      15.61627107
  1 315       0.00000000      15.64433210
  1 316       0.00000000      30.21694275
  1 317       0.00000000      15.61502254
  1 318       0.00000000      15.62223468
  1 319       0.00000000      30.19580568
  1 320       0.00000000      15.59240022
  1 321       0.00000000      15.61132301
  1 322       0.00000000      30.16818525
  1 323       0.00000000      15.58141635
  1 324       0.00000000      15.61337660
  1 325       0.00000000      30.14353631
  1 326       0.00000000      15.58359436
  1 327       0.00000000      15.61500149
  1 328       0.00000000      30.13261824
  1 329       0.00000000      15.58525028
  1 330       0.00000000      15.62470187
  1 331       0.00000000      30.15757394
  1 332       0.00000000      15.59502403
  1 333       0.00000000      15.64153012
  1 334       0.00000000      30.19963696
  1 335       0.00000000      15.61148175
  1 336       0.00000000      15.64014069
  1 337       0.00000000      30.20836338
  1 338       0.00000000      15.61002145
  1 339       0.00000000      15.61783835
  1 340       0.00000000      30.18702929
  1 341       0.00000000      15.58752200
  1 342       0.00000000      15.60669728
  1 343       0.00000000      30.15952825
  1 344       0.00000000      15.57609875
  1 345       0.00000000      15.60912919
  1 346       0.00000000      30.13401659
  1 347       0.00000000      15.57856426
  1 348       0.00000000      15.61011322
  1 349       0.00000000      30.12280156
  1 350       0.00000000      15.57998541
  1 351       0.00000000      15.61387612
  1 352       0.00000000      30.13313366
  1 353       0.00000000      15.58417629
  1 354       0.00000000      15.61872924
  1 355       0.00000000      30.13872729
  1 356       0.00000000      15.58927137
  1 357       0.00000000      15.62075776
  1 358       0.00000000      30.13825892
  1 359       0.00000000      15.59183071
  1 360       0.00000000      15.63051417
  1 361       0.00000000      30.16750422
  1 362       0.00000000      15.60170508
  1 363       0.00000000      15.64738916
  1 364       0.00000000      30.21109414
  1 365       0.00000000      15.61824481
  1 366       0.00000000      15.64625288
  1 367       0.00000000      30.22022112
  1 368       0.00000000      15.61689610
  1 369       0.00000000      15.62400667
  1 370       0.00000000      30.19923599
  1 371       0.00000000      15.59448499
  1 372       0.00000000      15.61286128
  1 373       0.00000000      30.17171191
  1 374       0.00000000      15.58299085
  1 375       0.00000000      15.61519397
  1 376       0.00000000      30.14619113
  1 377       0.00000000      15.58550348
  1 378       0.00000000      15.61658414
  1 379       0.00000000      30.13601910
  1 380       0.00000000      15.58720308
  1 381       0.00000000      15.62633809
  1 382       0.00000000      30.16117919
  1 383       0.00000000      15.59700281
  1 384       0.00000000      15.64294572
  1 385       0.00000000      30.20309448
  1 386       0.00000000      15.61335873
  1 387       0.00000000      15.64159430
  1 388       0.00000000      30.21146310
  1 389       0.00000000      15.61173760
  1 390       0.00000000      15.61932007
  1 391       0.00000000      30.19018203
  1 392       0.00000000      15.58895022
  1 393       0.00000000      15.60858611
  1 394       0.00000000      30.16301797
  1 395       0.00000000      15.57812981
  1 396       0.00000000      15.61069852
  1 397       0.00000000      30.13755527
  1 398       0.00000000      15.58028672
  1 399       0.00000000      15.61194900
  1 400       0.00000000      30.12675687
  1 401       0.00000000      15.58208390
  1 402       0.00000000      15.62162011
  1 403       0.00000000      30.15179739
  1 404       0.00000000      15.59186965
  1 405       0.00000000      15.63818589
  1 406       0.00000000      30.19346485
  1 407       0.00000000      15.60772568
  1 408       0.00000000      15.63170872
  1 409       0.00000000      30.18813606
  1 410       0.00000000      15.60136317
  1 411       0.00000000      15.59478645
  1 412       0.00000000      30.14025429
  1 413       0.00000000      15.56462714
  1 414       0.00000000      15.56941382
  1 415       0.00000000      30.09495478
  1 416       0.00000000      15.53932910
  1 417       0.00000000      15.57612706
  1 418       0.00000000      30.08081840
  1 419       0.00000000      15.54572078
  1 420       0.00000000      15.60016202
  1 421       0.00000000      30.09854494
  1 422       0.00000000      15.56966364
  1 423       0.00000000      15.61967897
  1 424       0.00000000      30.12700452
  1 425       0.00000000      15.58976584
  1 426       0.00000000      15.62268960
  1 427       0.00000000      30.14738840
  1 428       0.00000000      15.59320485
  1 429       0.00000000      15.61894617
  1 430       0.00000000      30.14658704
  1 431       0.00000000      15.58985073
  1 432       0.00000000      15.62790952
  1 433       0.00000000      30.16590024
  1 434       0.00000000      15.59879233
  1 435       0.00000000      15.64463026
  1 436       0.00000000      30.20680319
  1 437       0.00000000      15.61512622
  1 438       0.00000000      15.64340367
  1 439       0.00000000      30.21521002
  1 440       0.00000000      15.61363005
  1 441       0.00000000      15.62108519
  1 442       0.00000000      30.19353312
  1 443       0.00000000      15.59115920
  1 444       0.00000000      15.61016297
  1 445       0.00000000      30.16615079
  1 446       0.00000000      15.57990400
  1 447       0.00000000      15.61237082
  1 448       0.00000000      30.14091494
  1 449       0.00000000      15.58222678
  1 450       0.00000000      15.61378159
  1 451       0.00000000      30.13048457
  1 452       0.00000000      15.58412377
  1 453       0.00000000      15.62379443
  1 454       0.00000000      30.15618321
  1 455       0.00000000      15.59411429
  1 456       0.00000000      15.64186128
  1 457       0.00000000      30.20106846
  1 458       0.00000000      15.61172046
  1 459       0.00000000      15.65105889
  1 460       0.00000000      30.23449552
  1 461       0.00000000      15.62030388
  1 462       0.00000000      15.68526677
  1 463       0.00000000      30.34019587
  1 464       0.00000000      15.65228146
  1 465       0.00000000      15.88119958
  1 466       0.00000000      30.76304961
  1 467       0.00000000      15.84073322
  1 468       0.00000000      16.28393188
  1 469       0.00000000      31.67665905
  1 470       0.00000000      16.22678993
  1 471       0.00000000      31.46258308
  1 472       0.00000000      33.58344416
  1 473       0.00000000      32.85960805
  1 474       0.00000000      32.13108468
  1 475       0.00000000      40.52546209
  1 476       0.00000000      32.11788545
  1 477       0.00000000      34.26944666
  1 478       0.00000000      31.31812623
  1 479       0.00000000      32.18626624
  1 480       0.00000000      30.67611087
  1 481       0.00000000      30.72077358
  1 482       0.00000000      30.05507912
  1 483       0.00000000      29.96426263
  1 484       0.00000000      29.78074650
  1 485       0.00000000      29.37746866
  1 486       0.00000000      29.67767079
  1 487       0.00000000      29.08717790
  1 488       0.00000000      29.66162794
  1 489       0.00000000      29.00500142
  1 490       0.00000000      29.68941219
  1 491       0.00000000      29.00945781
  1 492       0.00000000      29.70396386
  1 493       0.00000000      29.01391303
  1 494       0.00000000      29.68921342
  1 495       0.00000000      29.00139911
  1 496       0.00000000      29.65579523
  1 497       0.00000000      29.00148861
  1 498       0.00000000      29.62960708
  1 499       0.00000000      28.96549910
  1 500       0.00000000      29.62063005
  1 501       0.00000000      28.91849703
  1 502       0.00000000      29.62865192
  1 503       0.00000000      28.92287442
  1 504       0.00000000      29.64000237
  1 505       0.00000000      28.93242638
  1 506       0.00000000      29.64123605
  1 507       0.00000000      28.92639868
  1 508       0.00000000      29.66199379
  1 509       0.00000000      28.95458279
  1 510       0.00000000      29.69920348
  1 511       0.00000000      29.00212883
  1 512       0.00000000      29.71670460
  1 513       0.00000000      29.02034328
  1 514       0.00000000      29.70285784
  1 515       0.00000000      29.01238930
  1 516       0.00000000      29.66980511
  1 517       0.00000000      29.01412914
  1 518       0.00000000      29.64392369
  1 519       0.00000000      28.97899712
  1 520       0.00000000      29.63578776
  1 521       0.00000000      28.93377079
  1 522       0.00000000      29.65349810
  1 523       0.00000000      28.95075489
  1 524       0.00000000      29.68968342
  1 525       0.00000000      28.99470559
  1 526       0.00000000      29.70673517
  1 527       0.00000000      29.01157151
  1 528       0.00000000      29.69269018
  1 529       0.00000000      29.00310238
  1 530       0.00000000      29.65963235
  1 531       0.00000000      29.00461117
  1 532       0.00000000      29.63371802
  1 533       0.00000000      28.96949433
  1 534       0.00000000      29.62565316
  1 535       0.00000000      28.92423092
  1 536       0.00000000      29.64328818
  1 537       0.00000000      28.94127160
  1 538       0.00000000      29.67947503
  1 539       0.00000000      28.98512949
  1 540       0.00000000      29.69646415
  1 541       0.00000000      29.00194645
  1 542       0.00000000      29.68243628
  1 543       0.00000000      28.99342052
  1 544       0.00000000      29.64930399
  1 545       0.00000000      28.99486928
  1 546       0.00000000      29.62315728
  1 547       0.00000000      28.95928407
  1 548       0.00000000      29.61421065
  1 549       0.00000000      28.91243652
  1 550       0.00000000      29.62225574
  1 551       0.00000000      28.91683799
  1 552       0.00000000      29.63362754
  1 553       0.00000000      28.92647505
  1 554       0.00000000      29.63484990
  1 555       0.00000000      28.92044502
  1 556       0.00000000      29.65558672
  1 557       0.00000000      28.94852283
  1 558       0.00000000      29.69287966
  1 559       0.00000000      28.99620693
  1 560       0.00000000      29.71022147
  1 561       0.00000000      29.01431984
  1 562       0.00000000      29.69652159
  1 563       0.00000000      29.00638610
  1 564       0.00000000      29.66340902
  1 565       0.00000000      29.00814604
  1 566       0.00000000      29.63755493
  1 567       0.00000000      28.97300775
  1 568       0.00000000      29.62942475
  1 569       0.00000000      28.92782920
  1 570       0.00000000      29.64712741
  1 571       0.00000000      28.94482930
  1 572       0.00000000      29.68330022
  1 573       0.00000000      28.98872677
  1 574       0.00000000      29.70035499
  1 575       0.00000000      29.00557393
  1 576       0.00000000      29.68627542
  1 577       0.00000000      28.99701274
  1 578       0.00000000      29.65312405
  1 579       0.00000000      28.99841854
  1 580       0.00000000      29.62692198
  1 581       0.00000000      28.96289325
  1 582       0.00000000      29.61805945
  1 583       0.00000000      28.91596975
  1 584       0.00000000      29.62618650
  1 585       0.00000000      28.92042183
  1 586       0.00000000      29.63752044
  1 587       0.00000000      28.93011396
  1 588       0.00000000      29.63895365
  1 589       0.00000000      28.92413902
  1 590       0.00000000      29.65927877
  1 591       0.00000000      28.95240985
  1 592       0.00000000      29.69666993
  1 593       0.00000000      28.99958217
  1 594       0.00000000      29.71373016
  1 595       0.00000000      29.01805340
  1 596       0.00000000      29.70010496
  1 597       0.00000000      29.00961216
  1 598       0.00000000      29.66753285
  1 599       0.00000000      29.01146753
  1 600       0.00000000      29.64132870
  1 601       0.00000000      28.97687787
  1 602       0.00000000      29.63322073
  1 603       0.00000000      28.93135601
  1 604       0.00000000      29.65107774
  1 605       0.00000000      28.94836759
  1 606       0.00000000      29.68708274
  1 607       0.00000000      28.99245334
  1 608       0.00000000      29.70426964
  1 609       0.00000000      29.00909705
  1 610       0.00000000      29.69029294
  1 611       0.00000000      29.00079162
  1 612       0.00000000      29.65705282
  1 613       0.00000000      29.00235268
  1 614       0.00000000      29.63147829
  1 615       0.00000000      28.96708337
  1 616       0.00000000      29.62327597
  1 617       0.00000000      28.92211065
  1 618       0.00000000      29.64096412
  1 619       0.00000000      28.93890159
  1 620       0.00000000      29.67629148
  1 621       0.00000000      28.98191433
  1 622       0.00000000      29.68470693
  1 623       0.00000000      28.98841447
  1 624       0.00000000      29.65644772
  1 625       0.00000000      28.96011762
  1 626       0.00000000      29.59252847
  1 627       0.00000000      28.93472536
  1 628       0.00000000      29.54327227
  1 629       0.00000000      28.89588651
  1 630       0.00000000      29.55624178
  1 631       0.00000000      28.86274414
  1 632       0.00000000      29.60874403
  1 633       0.00000000      28.88886775
  1 634       0.00000000      29.65489819
  1 635       0.00000000      28.93295645
  1 636       0.00000000      29.65633367
  1 637       0.00000000      28.94637430
  1 638       0.00000000      29.65790962
  1 639       0.00000000      28.97121411
  1 640       0.00000000      29.69191542
  1 641       0.00000000      29.00067320
  1 642       0.00000000      29.70800273
  1 643       0.00000000      29.01401436
  1 644       0.00000000      29.69362547
  1 645       0.00000000      29.00429074
  1 646       0.00000000      29.66099509
  1 647       0.00000000      29.00590798
  1 648       0.00000000      29.63489996
  1 649       0.00000000      28.97067351
  1 650       0.00000000      29.62679395
  1 651       0.00000000      28.92539129
  1 652       0.00000000      29.64425310
  1 653       0.00000000      28.94211731
  1 654       0.00000000      29.68113320
  1 655       0.00000000      28.98667534
  1 656       0.00000000      29.69805225
  1 657       0.00000000      29.00344276
  1 658       0.00000000      29.68396997
  1 659       0.00000000      28.99486568
  1 660       0.00000000      29.65034872
  1 661       0.00000000      28.99580439
  1 662       0.00000000      29.62445140
  1 663       0.00000000      28.96053177
  1 664       0.00000000      29.61491273
  1 665       0.00000000      28.91319138
  1 666       0.00000000      29.62359296
  1 667       0.00000000      28.91819778
  1 668       0.00000000      29.63539697
  1 669       0.00000000      28.92747772
  1 670       0.00000000      29.63601908
  1 671       0.00000000      28.92197051
  1 672       0.00000000      29.65675578
  1 673       0.00000000      28.94979440
  1 674       0.00000000      29.69438040
  1 675       0.00000000      28.99717712
  1 676       0.00000000      29.71130410
  1 677       0.00000000      29.01580405
  1 678       0.00000000      29.69798410
  1 679       0.00000000      29.00737033
  1 680       0.00000000      29.66469878
  1 681       0.00000000      29.00950609
  1 682       0.00000000      29.63872566
  1 683       0.00000000      28.97423929
  1 684       0.00000000      29.63074986
  1 685       0.00000000      28.92893972
  1 686       0.00000000      29.64824580
  1 687       0.00000000      28.94605422
  1 688       0.00000000      29.68457992
  1 689       0.00000000      28.98975621
  1 690       0.00000000      29.70130506
  1 691       0.00000000      29.00673633
  1 692       0.00000000      29.68744155
  1 693       0.00000000      28.99798433
  1 694       0.00000000      29.65451926
  1 695       0.00000000      28.99953928
  1 696       0.00000000      29.62820231
  1 697       0.00000000      28.96421612
  1 698       0.00000000      29.61907253
  1 699       0.00000000      28.91703200
  1 700       0.00000000      29.62707911
  1 701       0.00000000      28.92141252
  1 702       0.00000000      29.63902256
  1 703       0.00000000      28.93102212
  1 704       0.00000000      29.64041283
  1 705       0.00000000      28.92573051
  1 706       0.00000000      29.66094626
  1 707       0.00000000      28.95371512
  1 708       0.00000000      29.69807610
  1 709       0.00000000      29.00101859
  1 710       0.00000000      29.71568221
  1 711       0.00000000      29.01948664
  1 712       0.00000000      29.70144393
  1 713       0.00000000      29.01113123