# File generated by Flopy version 3.3.5 on 03/04/2022 at 11:13:58.
BEGIN options
END options

BEGIN timing
  TDIS6  ex-gwf-disvmesh.tdis
END timing

BEGIN models
  gwf6  ex-gwf-disvmesh.nam  ex-gwf-disvmesh
END models

BEGIN exchanges
END exchanges

BEGIN solutiongroup  1
  ims6  ex-gwf-disvmesh.ims  ex-gwf-disvmesh
END solutiongroup  1

